===========================================================
Running comps section bundle: A
===========================================================
..... subsection c
Running WRF for case: c
--- WARNING: traj_opt is zero, but num_traj is not zero; setting num_traj to zero.
--- NOTE: sst_update is 0, setting io_form_auxinput4 = 0 and auxinput4_interval = 0 for all domains
--- NOTE: grid_fdda is 0 for domain      1, setting gfdda interval and ending time to 0 for that domain.
--- NOTE: both grid_sfdda and pxlsm_soil_nudge are 0 for domain      1, setting sgfdda interval and ending time to 0 for that domain.
--- NOTE: obs_nudge_opt is 0 for domain      1, setting obs nudging interval and ending time to 0 for that domain.
--- NOTE: bl_pbl_physics /= 4, implies mfshconv must be 0, resetting
Need MYNN PBL for icloud_bl = 1, resetting to 0
--- NOTE: RRTMG radiation is not used, setting:  o3input=0 to avoid data pre-processing
--- NOTE: num_soil_layers has been set to      5
WRF V3.8 MODEL
DYNAMICS OPTION: Eulerian Mass Coordinate
 alloc_space_field: domain            1 ,             581027652  bytes allocated
 RESTART run: opening wrfrst_d01_0000-01-01_01:00:00 for reading
 Warning LENGTH < 1 in ext_ncd_get_dom_ti.code CHAR, line         107
mminlu = ''
 NOTE:  Ideal cases always use hypsometric_opt=1, regardless of namelist setting
Timing for processing restart file for domain        1:    2.00361 elapsed seconds
WRF TILE   1 IS      1 IE    150 JS      1 JE    150
set_tiles3: NUMBER OF TILES =   1
WRF NUMBER OF TILES FROM OMP_GET_MAX_THREADS =  10
 Tile Strategy is not specified. Assuming 1D-Y
WRF TILE   1 IS      1 IE    150 JS      1 JE     15
WRF TILE   2 IS      1 IE    150 JS     16 JE     30
WRF TILE   3 IS      1 IE    150 JS     31 JE     45
WRF TILE   4 IS      1 IE    150 JS     46 JE     60
WRF TILE   5 IS      1 IE    150 JS     61 JE     75
WRF TILE   6 IS      1 IE    150 JS     76 JE     90
WRF TILE   7 IS      1 IE    150 JS     91 JE    105
WRF TILE   8 IS      1 IE    150 JS    106 JE    120
WRF TILE   9 IS      1 IE    150 JS    121 JE    135
WRF TILE  10 IS      1 IE    150 JS    136 JE    150
WRF NUMBER OF TILES =  10
Top of Radiation Driver
Timing for main: time 0000-01-01_01:00:00 on domain   1:    3.67984 elapsed seconds
Top of Radiation Driver
Timing for main: time 0000-01-01_01:00:00 on domain   1:    3.05753 elapsed seconds
Top of Radiation Driver
Timing for main: time 0000-01-01_01:00:00 on domain   1:    3.00131 elapsed seconds
Top of Radiation Driver
Timing for main: time 0000-01-01_01:00:01 on domain   1:    2.97953 elapsed seconds
Top of Radiation Driver
Timing for main: time 0000-01-01_01:00:01 on domain   1:    2.98335 elapsed seconds
Top of Radiation Driver
Timing for main: time 0000-01-01_01:00:01 on domain   1:    2.97146 elapsed seconds
Top of Radiation Driver
Timing for main: time 0000-01-01_01:00:01 on domain   1:    2.98600 elapsed seconds
Top of Radiation Driver
Timing for main: time 0000-01-01_01:00:02 on domain   1:    2.98285 elapsed seconds
Top of Radiation Driver
Timing for main: time 0000-01-01_01:00:02 on domain   1:    3.01358 elapsed seconds
Top of Radiation Driver
Timing for main: time 0000-01-01_01:00:02 on domain   1:    2.99939 elapsed seconds
Top of Radiation Driver
Timing for main: time 0000-01-01_01:00:02 on domain   1:    2.99967 elapsed seconds
Top of Radiation Driver
Timing for main: time 0000-01-01_01:00:03 on domain   1:    2.98454 elapsed seconds
Top of Radiation Driver
Timing for main: time 0000-01-01_01:00:03 on domain   1:    2.98055 elapsed seconds
Top of Radiation Driver
Timing for main: time 0000-01-01_01:00:03 on domain   1:    2.97304 elapsed seconds
Top of Radiation Driver
Timing for main: time 0000-01-01_01:00:03 on domain   1:    2.97381 elapsed seconds
Top of Radiation Driver
Timing for main: time 0000-01-01_01:00:04 on domain   1:    2.98777 elapsed seconds
Top of Radiation Driver
Timing for main: time 0000-01-01_01:00:04 on domain   1:    2.96787 elapsed seconds
Top of Radiation Driver
Timing for main: time 0000-01-01_01:00:04 on domain   1:    2.98149 elapsed seconds
Top of Radiation Driver
Timing for main: time 0000-01-01_01:00:04 on domain   1:    2.98348 elapsed seconds
Top of Radiation Driver
Timing for main: time 0000-01-01_01:00:05 on domain   1:    2.97024 elapsed seconds
Top of Radiation Driver
Timing for main: time 0000-01-01_01:00:05 on domain   1:    2.98209 elapsed seconds
Top of Radiation Driver
Timing for main: time 0000-01-01_01:00:05 on domain   1:    2.97962 elapsed seconds
Top of Radiation Driver
Timing for main: time 0000-01-01_01:00:05 on domain   1:    2.96868 elapsed seconds
Top of Radiation Driver
Timing for main: time 0000-01-01_01:00:06 on domain   1:    2.98238 elapsed seconds
Top of Radiation Driver
Timing for main: time 0000-01-01_01:00:06 on domain   1:    2.96254 elapsed seconds
Top of Radiation Driver
Timing for main: time 0000-01-01_01:00:06 on domain   1:    2.97417 elapsed seconds
Top of Radiation Driver
Timing for main: time 0000-01-01_01:00:06 on domain   1:    2.98041 elapsed seconds
Top of Radiation Driver
Timing for main: time 0000-01-01_01:00:07 on domain   1:    2.98034 elapsed seconds
Top of Radiation Driver
Timing for main: time 0000-01-01_01:00:07 on domain   1:    2.98625 elapsed seconds
Top of Radiation Driver
Timing for main: time 0000-01-01_01:00:07 on domain   1:    2.97425 elapsed seconds
Top of Radiation Driver
Timing for main: time 0000-01-01_01:00:07 on domain   1:    2.99178 elapsed seconds
Top of Radiation Driver
Timing for main: time 0000-01-01_01:00:08 on domain   1:    2.97014 elapsed seconds
Top of Radiation Driver
Timing for main: time 0000-01-01_01:00:08 on domain   1:    2.98556 elapsed seconds
Top of Radiation Driver
Timing for main: time 0000-01-01_01:00:08 on domain   1:    2.97172 elapsed seconds
Top of Radiation Driver
Timing for main: time 0000-01-01_01:00:08 on domain   1:    2.98312 elapsed seconds
Top of Radiation Driver
Timing for main: time 0000-01-01_01:00:09 on domain   1:    3.00431 elapsed seconds
Top of Radiation Driver
Timing for main: time 0000-01-01_01:00:09 on domain   1:    2.96442 elapsed seconds
Top of Radiation Driver
Timing for main: time 0000-01-01_01:00:09 on domain   1:    2.97933 elapsed seconds
Top of Radiation Driver
Timing for main: time 0000-01-01_01:00:09 on domain   1:    2.98615 elapsed seconds
Top of Radiation Driver
Timing for main: time 0000-01-01_01:00:10 on domain   1:    2.96964 elapsed seconds
Top of Radiation Driver
Timing for main: time 0000-01-01_01:00:10 on domain   1:    2.97886 elapsed seconds
Top of Radiation Driver
Timing for main: time 0000-01-01_01:00:10 on domain   1:    2.98619 elapsed seconds
Top of Radiation Driver
Timing for main: time 0000-01-01_01:00:10 on domain   1:    2.97472 elapsed seconds
Top of Radiation Driver
Timing for main: time 0000-01-01_01:00:11 on domain   1:    2.99537 elapsed seconds
Top of Radiation Driver
Timing for main: time 0000-01-01_01:00:11 on domain   1:    2.97273 elapsed seconds
Top of Radiation Driver
Timing for main: time 0000-01-01_01:00:11 on domain   1:    2.96276 elapsed seconds
Top of Radiation Driver
Timing for main: time 0000-01-01_01:00:11 on domain   1:    2.98562 elapsed seconds
Top of Radiation Driver
Timing for main: time 0000-01-01_01:00:12 on domain   1:    2.97872 elapsed seconds
Top of Radiation Driver
Timing for main: time 0000-01-01_01:00:12 on domain   1:    2.98390 elapsed seconds
Top of Radiation Driver
Timing for main: time 0000-01-01_01:00:12 on domain   1:    2.98623 elapsed seconds
Top of Radiation Driver
Timing for main: time 0000-01-01_01:00:12 on domain   1:    2.97567 elapsed seconds
Top of Radiation Driver
Timing for main: time 0000-01-01_01:00:13 on domain   1:    2.98812 elapsed seconds
Top of Radiation Driver
Timing for main: time 0000-01-01_01:00:13 on domain   1:    2.98249 elapsed seconds
Top of Radiation Driver
Timing for main: time 0000-01-01_01:00:13 on domain   1:    3.00126 elapsed seconds
Top of Radiation Driver
Timing for main: time 0000-01-01_01:00:13 on domain   1:    2.97087 elapsed seconds
Top of Radiation Driver
Timing for main: time 0000-01-01_01:00:14 on domain   1:    2.98450 elapsed seconds
Top of Radiation Driver
Timing for main: time 0000-01-01_01:00:14 on domain   1:    2.96754 elapsed seconds
Top of Radiation Driver
Timing for main: time 0000-01-01_01:00:14 on domain   1:    2.98938 elapsed seconds
Top of Radiation Driver
Timing for main: time 0000-01-01_01:00:14 on domain   1:    2.97645 elapsed seconds
Top of Radiation Driver
Timing for main: time 0000-01-01_01:00:15 on domain   1:    3.00503 elapsed seconds
Top of Radiation Driver
Timing for main: time 0000-01-01_01:00:15 on domain   1:    2.97563 elapsed seconds
Top of Radiation Driver
Timing for main: time 0000-01-01_01:00:15 on domain   1:    2.96984 elapsed seconds
Top of Radiation Driver
Timing for main: time 0000-01-01_01:00:15 on domain   1:    2.98270 elapsed seconds
Top of Radiation Driver
Timing for main: time 0000-01-01_01:00:16 on domain   1:    2.98328 elapsed seconds
Top of Radiation Driver
Timing for main: time 0000-01-01_01:00:16 on domain   1:    2.96274 elapsed seconds
Top of Radiation Driver
Timing for main: time 0000-01-01_01:00:16 on domain   1:    3.01499 elapsed seconds
Top of Radiation Driver
Timing for main: time 0000-01-01_01:00:16 on domain   1:    2.98365 elapsed seconds
Top of Radiation Driver
Timing for main: time 0000-01-01_01:00:17 on domain   1:    2.97570 elapsed seconds
Top of Radiation Driver
Timing for main: time 0000-01-01_01:00:17 on domain   1:    2.98918 elapsed seconds
Top of Radiation Driver
Timing for main: time 0000-01-01_01:00:17 on domain   1:    2.97113 elapsed seconds
Top of Radiation Driver
Timing for main: time 0000-01-01_01:00:17 on domain   1:    2.97447 elapsed seconds
Top of Radiation Driver
Timing for main: time 0000-01-01_01:00:18 on domain   1:    2.99328 elapsed seconds
Top of Radiation Driver
Timing for main: time 0000-01-01_01:00:18 on domain   1:    2.98978 elapsed seconds
Top of Radiation Driver
Timing for main: time 0000-01-01_01:00:18 on domain   1:    3.01832 elapsed seconds
Top of Radiation Driver
Timing for main: time 0000-01-01_01:00:18 on domain   1:    2.99109 elapsed seconds
Top of Radiation Driver
Timing for main: time 0000-01-01_01:00:19 on domain   1:    2.96068 elapsed seconds
Top of Radiation Driver
Timing for main: time 0000-01-01_01:00:19 on domain   1:    2.98099 elapsed seconds
Top of Radiation Driver
Timing for main: time 0000-01-01_01:00:19 on domain   1:    3.04160 elapsed seconds
Top of Radiation Driver
Timing for main: time 0000-01-01_01:00:19 on domain   1:    2.97561 elapsed seconds
Top of Radiation Driver
Timing for main: time 0000-01-01_01:00:20 on domain   1:    2.97751 elapsed seconds
Top of Radiation Driver
Timing for main: time 0000-01-01_01:00:20 on domain   1:    2.97964 elapsed seconds
Top of Radiation Driver
Timing for main: time 0000-01-01_01:00:20 on domain   1:    2.97408 elapsed seconds
Top of Radiation Driver
Timing for main: time 0000-01-01_01:00:20 on domain   1:    2.97417 elapsed seconds
Top of Radiation Driver
Timing for main: time 0000-01-01_01:00:21 on domain   1:    2.98047 elapsed seconds
Top of Radiation Driver
Timing for main: time 0000-01-01_01:00:21 on domain   1:    2.98686 elapsed seconds
Top of Radiation Driver
Timing for main: time 0000-01-01_01:00:21 on domain   1:    2.97717 elapsed seconds
Top of Radiation Driver
Timing for main: time 0000-01-01_01:00:21 on domain   1:    2.98155 elapsed seconds
Top of Radiation Driver
Timing for main: time 0000-01-01_01:00:22 on domain   1:    3.00199 elapsed seconds
Top of Radiation Driver
Timing for main: time 0000-01-01_01:00:22 on domain   1:    2.97047 elapsed seconds
Top of Radiation Driver
Timing for main: time 0000-01-01_01:00:22 on domain   1:    2.97984 elapsed seconds
Top of Radiation Driver
Timing for main: time 0000-01-01_01:00:22 on domain   1:    2.98161 elapsed seconds
Top of Radiation Driver
Timing for main: time 0000-01-01_01:00:23 on domain   1:    2.98156 elapsed seconds
Top of Radiation Driver
Timing for main: time 0000-01-01_01:00:23 on domain   1:    2.98481 elapsed seconds
Top of Radiation Driver
Timing for main: time 0000-01-01_01:00:23 on domain   1:    2.97246 elapsed seconds
Top of Radiation Driver
Timing for main: time 0000-01-01_01:00:23 on domain   1:    2.97197 elapsed seconds
Top of Radiation Driver
Timing for main: time 0000-01-01_01:00:24 on domain   1:    2.99255 elapsed seconds
Top of Radiation Driver
Timing for main: time 0000-01-01_01:00:24 on domain   1:    3.00786 elapsed seconds
Top of Radiation Driver
Timing for main: time 0000-01-01_01:00:24 on domain   1:    2.98767 elapsed seconds
Top of Radiation Driver
Timing for main: time 0000-01-01_01:00:24 on domain   1:    2.98214 elapsed seconds
Top of Radiation Driver
Timing for main: time 0000-01-01_01:00:25 on domain   1:    2.98472 elapsed seconds
Top of Radiation Driver
Timing for main: time 0000-01-01_01:00:25 on domain   1:    2.98997 elapsed seconds
Top of Radiation Driver
Timing for main: time 0000-01-01_01:00:25 on domain   1:    2.99425 elapsed seconds
Top of Radiation Driver
Timing for main: time 0000-01-01_01:00:25 on domain   1:    2.99432 elapsed seconds
Top of Radiation Driver
Timing for main: time 0000-01-01_01:00:26 on domain   1:    2.96489 elapsed seconds
Top of Radiation Driver
Timing for main: time 0000-01-01_01:00:26 on domain   1:    2.96919 elapsed seconds
Top of Radiation Driver
Timing for main: time 0000-01-01_01:00:26 on domain   1:    2.98358 elapsed seconds
Top of Radiation Driver
Timing for main: time 0000-01-01_01:00:26 on domain   1:    2.96979 elapsed seconds
Top of Radiation Driver
Timing for main: time 0000-01-01_01:00:27 on domain   1:    3.01510 elapsed seconds
Top of Radiation Driver
Timing for main: time 0000-01-01_01:00:27 on domain   1:    2.98881 elapsed seconds
Top of Radiation Driver
Timing for main: time 0000-01-01_01:00:27 on domain   1:    2.96213 elapsed seconds
Top of Radiation Driver
Timing for main: time 0000-01-01_01:00:27 on domain   1:    2.98265 elapsed seconds
Top of Radiation Driver
Timing for main: time 0000-01-01_01:00:28 on domain   1:    2.97007 elapsed seconds
Top of Radiation Driver
Timing for main: time 0000-01-01_01:00:28 on domain   1:    2.97273 elapsed seconds
Top of Radiation Driver
Timing for main: time 0000-01-01_01:00:28 on domain   1:    2.96775 elapsed seconds
Top of Radiation Driver
Timing for main: time 0000-01-01_01:00:28 on domain   1:    2.97334 elapsed seconds
Top of Radiation Driver
Timing for main: time 0000-01-01_01:00:29 on domain   1:    2.97636 elapsed seconds
Top of Radiation Driver
Timing for main: time 0000-01-01_01:00:29 on domain   1:    2.97582 elapsed seconds
Top of Radiation Driver
Timing for main: time 0000-01-01_01:00:29 on domain   1:    2.99077 elapsed seconds
Top of Radiation Driver
Timing for main: time 0000-01-01_01:00:29 on domain   1:    2.97487 elapsed seconds
Top of Radiation Driver
Timing for main: time 0000-01-01_01:00:30 on domain   1:    2.98103 elapsed seconds
Top of Radiation Driver
Timing for main: time 0000-01-01_01:00:30 on domain   1:    2.97206 elapsed seconds
Top of Radiation Driver
Timing for main: time 0000-01-01_01:00:30 on domain   1:    2.97791 elapsed seconds
Top of Radiation Driver
Timing for main: time 0000-01-01_01:00:30 on domain   1:    2.98820 elapsed seconds
Top of Radiation Driver
Timing for main: time 0000-01-01_01:00:31 on domain   1:    2.98162 elapsed seconds
Top of Radiation Driver
Timing for main: time 0000-01-01_01:00:31 on domain   1:    2.97737 elapsed seconds
Top of Radiation Driver
Timing for main: time 0000-01-01_01:00:31 on domain   1:    2.99899 elapsed seconds
Top of Radiation Driver
Timing for main: time 0000-01-01_01:00:31 on domain   1:    2.97452 elapsed seconds
Top of Radiation Driver
Timing for main: time 0000-01-01_01:00:32 on domain   1:    2.97145 elapsed seconds
Top of Radiation Driver
Timing for main: time 0000-01-01_01:00:32 on domain   1:    2.97245 elapsed seconds
Top of Radiation Driver
Timing for main: time 0000-01-01_01:00:32 on domain   1:    2.98457 elapsed seconds
Top of Radiation Driver
Timing for main: time 0000-01-01_01:00:32 on domain   1:    2.98425 elapsed seconds
Top of Radiation Driver
Timing for main: time 0000-01-01_01:00:33 on domain   1:    2.99010 elapsed seconds
Top of Radiation Driver
Timing for main: time 0000-01-01_01:00:33 on domain   1:    2.98492 elapsed seconds
Top of Radiation Driver
Timing for main: time 0000-01-01_01:00:33 on domain   1:    2.95412 elapsed seconds
Top of Radiation Driver
Timing for main: time 0000-01-01_01:00:33 on domain   1:    2.97846 elapsed seconds
Top of Radiation Driver
Timing for main: time 0000-01-01_01:00:34 on domain   1:    2.99769 elapsed seconds
Top of Radiation Driver
Timing for main: time 0000-01-01_01:00:34 on domain   1:    2.96691 elapsed seconds
Top of Radiation Driver
Timing for main: time 0000-01-01_01:00:34 on domain   1:    2.99266 elapsed seconds
Top of Radiation Driver
Timing for main: time 0000-01-01_01:00:34 on domain   1:    2.98821 elapsed seconds
Top of Radiation Driver
Timing for main: time 0000-01-01_01:00:35 on domain   1:    2.98204 elapsed seconds
Top of Radiation Driver
Timing for main: time 0000-01-01_01:00:35 on domain   1:    2.99171 elapsed seconds
Top of Radiation Driver
Timing for main: time 0000-01-01_01:00:35 on domain   1:    2.97379 elapsed seconds
Top of Radiation Driver
Timing for main: time 0000-01-01_01:00:35 on domain   1:    2.98199 elapsed seconds
Top of Radiation Driver
Timing for main: time 0000-01-01_01:00:36 on domain   1:    2.97073 elapsed seconds
Top of Radiation Driver
Timing for main: time 0000-01-01_01:00:36 on domain   1:    2.98901 elapsed seconds
Top of Radiation Driver
Timing for main: time 0000-01-01_01:00:36 on domain   1:    2.96521 elapsed seconds
Top of Radiation Driver
Timing for main: time 0000-01-01_01:00:36 on domain   1:    2.96836 elapsed seconds
Top of Radiation Driver
Timing for main: time 0000-01-01_01:00:37 on domain   1:    2.97880 elapsed seconds
Top of Radiation Driver
Timing for main: time 0000-01-01_01:00:37 on domain   1:    2.97841 elapsed seconds
Top of Radiation Driver
Timing for main: time 0000-01-01_01:00:37 on domain   1:    2.97470 elapsed seconds
Top of Radiation Driver
Timing for main: time 0000-01-01_01:00:37 on domain   1:    2.95403 elapsed seconds
Top of Radiation Driver
Timing for main: time 0000-01-01_01:00:38 on domain   1:    2.96622 elapsed seconds
Top of Radiation Driver
Timing for main: time 0000-01-01_01:00:38 on domain   1:    2.97679 elapsed seconds
Top of Radiation Driver
Timing for main: time 0000-01-01_01:00:38 on domain   1:    2.97358 elapsed seconds
Top of Radiation Driver
Timing for main: time 0000-01-01_01:00:38 on domain   1:    2.97932 elapsed seconds
Top of Radiation Driver
Timing for main: time 0000-01-01_01:00:39 on domain   1:    2.99114 elapsed seconds
Top of Radiation Driver
Timing for main: time 0000-01-01_01:00:39 on domain   1:    2.98830 elapsed seconds
Top of Radiation Driver
Timing for main: time 0000-01-01_01:00:39 on domain   1:    2.99338 elapsed seconds
Top of Radiation Driver
Timing for main: time 0000-01-01_01:00:39 on domain   1:    2.98893 elapsed seconds
Top of Radiation Driver
Timing for main: time 0000-01-01_01:00:40 on domain   1:    3.00727 elapsed seconds
Top of Radiation Driver
Timing for main: time 0000-01-01_01:00:40 on domain   1:    2.99028 elapsed seconds
Top of Radiation Driver
Timing for main: time 0000-01-01_01:00:40 on domain   1:    2.99137 elapsed seconds
Top of Radiation Driver
Timing for main: time 0000-01-01_01:00:40 on domain   1:    2.98116 elapsed seconds
Top of Radiation Driver
Timing for main: time 0000-01-01_01:00:41 on domain   1:    3.02212 elapsed seconds
Top of Radiation Driver
Timing for main: time 0000-01-01_01:00:41 on domain   1:    2.98411 elapsed seconds
Top of Radiation Driver
Timing for main: time 0000-01-01_01:00:41 on domain   1:    2.99708 elapsed seconds
Top of Radiation Driver
Timing for main: time 0000-01-01_01:00:41 on domain   1:    2.98145 elapsed seconds
Top of Radiation Driver
Timing for main: time 0000-01-01_01:00:42 on domain   1:    3.00913 elapsed seconds
Top of Radiation Driver
Timing for main: time 0000-01-01_01:00:42 on domain   1:    2.99082 elapsed seconds
Top of Radiation Driver
Timing for main: time 0000-01-01_01:00:42 on domain   1:    2.99774 elapsed seconds
Top of Radiation Driver
Timing for main: time 0000-01-01_01:00:42 on domain   1:    3.00070 elapsed seconds
Top of Radiation Driver
Timing for main: time 0000-01-01_01:00:43 on domain   1:    2.97344 elapsed seconds
Top of Radiation Driver
Timing for main: time 0000-01-01_01:00:43 on domain   1:    3.01526 elapsed seconds
Top of Radiation Driver
Timing for main: time 0000-01-01_01:00:43 on domain   1:    2.98245 elapsed seconds
Top of Radiation Driver
Timing for main: time 0000-01-01_01:00:43 on domain   1:    2.97519 elapsed seconds
Top of Radiation Driver
Timing for main: time 0000-01-01_01:00:44 on domain   1:    3.00133 elapsed seconds
Top of Radiation Driver
Timing for main: time 0000-01-01_01:00:44 on domain   1:    2.98857 elapsed seconds
Top of Radiation Driver
Timing for main: time 0000-01-01_01:00:44 on domain   1:    2.97541 elapsed seconds
Top of Radiation Driver
Timing for main: time 0000-01-01_01:00:44 on domain   1:    2.98908 elapsed seconds
Top of Radiation Driver
Timing for main: time 0000-01-01_01:00:45 on domain   1:    2.98051 elapsed seconds
Top of Radiation Driver
Timing for main: time 0000-01-01_01:00:45 on domain   1:    2.97535 elapsed seconds
Top of Radiation Driver
Timing for main: time 0000-01-01_01:00:45 on domain   1:    2.96332 elapsed seconds
Top of Radiation Driver
Timing for main: time 0000-01-01_01:00:45 on domain   1:    2.97740 elapsed seconds
Top of Radiation Driver
Timing for main: time 0000-01-01_01:00:46 on domain   1:    2.97990 elapsed seconds
Top of Radiation Driver
Timing for main: time 0000-01-01_01:00:46 on domain   1:    2.97774 elapsed seconds
Top of Radiation Driver
Timing for main: time 0000-01-01_01:00:46 on domain   1:    2.99835 elapsed seconds
Top of Radiation Driver
Timing for main: time 0000-01-01_01:00:46 on domain   1:    2.98703 elapsed seconds
Top of Radiation Driver
Timing for main: time 0000-01-01_01:00:47 on domain   1:    2.96670 elapsed seconds
Top of Radiation Driver
Timing for main: time 0000-01-01_01:00:47 on domain   1:    2.96428 elapsed seconds
Top of Radiation Driver
Timing for main: time 0000-01-01_01:00:47 on domain   1:    2.98868 elapsed seconds
Top of Radiation Driver
Timing for main: time 0000-01-01_01:00:47 on domain   1:    2.97717 elapsed seconds
Top of Radiation Driver
Timing for main: time 0000-01-01_01:00:48 on domain   1:    2.97300 elapsed seconds
Top of Radiation Driver
Timing for main: time 0000-01-01_01:00:48 on domain   1:    2.97975 elapsed seconds
Top of Radiation Driver
Timing for main: time 0000-01-01_01:00:48 on domain   1:    2.97750 elapsed seconds
Top of Radiation Driver
Timing for main: time 0000-01-01_01:00:48 on domain   1:    3.02232 elapsed seconds
Top of Radiation Driver
Timing for main: time 0000-01-01_01:00:49 on domain   1:    3.00294 elapsed seconds
Top of Radiation Driver
Timing for main: time 0000-01-01_01:00:49 on domain   1:    2.99523 elapsed seconds
Top of Radiation Driver
Timing for main: time 0000-01-01_01:00:49 on domain   1:    2.98505 elapsed seconds
Top of Radiation Driver
Timing for main: time 0000-01-01_01:00:49 on domain   1:    2.96730 elapsed seconds
Top of Radiation Driver
Timing for main: time 0000-01-01_01:00:50 on domain   1:    2.99095 elapsed seconds
Top of Radiation Driver
Timing for main: time 0000-01-01_01:00:50 on domain   1:    3.01342 elapsed seconds
Top of Radiation Driver
Timing for main: time 0000-01-01_01:00:50 on domain   1:    2.98090 elapsed seconds
Top of Radiation Driver
Timing for main: time 0000-01-01_01:00:50 on domain   1:    2.98312 elapsed seconds
Top of Radiation Driver
Timing for main: time 0000-01-01_01:00:51 on domain   1:    3.00008 elapsed seconds
Top of Radiation Driver
Timing for main: time 0000-01-01_01:00:51 on domain   1:    2.99203 elapsed seconds
Top of Radiation Driver
Timing for main: time 0000-01-01_01:00:51 on domain   1:    2.98979 elapsed seconds
Top of Radiation Driver
Timing for main: time 0000-01-01_01:00:51 on domain   1:    2.99519 elapsed seconds
Top of Radiation Driver
Timing for main: time 0000-01-01_01:00:52 on domain   1:    3.03346 elapsed seconds
Top of Radiation Driver
Timing for main: time 0000-01-01_01:00:52 on domain   1:    2.97824 elapsed seconds
Top of Radiation Driver
Timing for main: time 0000-01-01_01:00:52 on domain   1:    2.97939 elapsed seconds
Top of Radiation Driver
Timing for main: time 0000-01-01_01:00:52 on domain   1:    2.98785 elapsed seconds
Top of Radiation Driver
Timing for main: time 0000-01-01_01:00:53 on domain   1:    2.96497 elapsed seconds
Top of Radiation Driver
Timing for main: time 0000-01-01_01:00:53 on domain   1:    2.99455 elapsed seconds
Top of Radiation Driver
Timing for main: time 0000-01-01_01:00:53 on domain   1:    2.98954 elapsed seconds
Top of Radiation Driver
Timing for main: time 0000-01-01_01:00:53 on domain   1:    2.98742 elapsed seconds
Top of Radiation Driver
Timing for main: time 0000-01-01_01:00:54 on domain   1:    2.97128 elapsed seconds
Top of Radiation Driver
Timing for main: time 0000-01-01_01:00:54 on domain   1:    3.00741 elapsed seconds
Top of Radiation Driver
Timing for main: time 0000-01-01_01:00:54 on domain   1:    2.99970 elapsed seconds
Top of Radiation Driver
Timing for main: time 0000-01-01_01:00:54 on domain   1:    3.01511 elapsed seconds
Top of Radiation Driver
Timing for main: time 0000-01-01_01:00:55 on domain   1:    2.98125 elapsed seconds
Top of Radiation Driver
Timing for main: time 0000-01-01_01:00:55 on domain   1:    2.98224 elapsed seconds
Top of Radiation Driver
Timing for main: time 0000-01-01_01:00:55 on domain   1:    2.98015 elapsed seconds
Top of Radiation Driver
Timing for main: time 0000-01-01_01:00:55 on domain   1:    2.96686 elapsed seconds
Top of Radiation Driver
Timing for main: time 0000-01-01_01:00:56 on domain   1:    3.00850 elapsed seconds
Top of Radiation Driver
Timing for main: time 0000-01-01_01:00:56 on domain   1:    3.00112 elapsed seconds
Top of Radiation Driver
Timing for main: time 0000-01-01_01:00:56 on domain   1:    2.98334 elapsed seconds
Top of Radiation Driver
Timing for main: time 0000-01-01_01:00:56 on domain   1:    2.99382 elapsed seconds
Top of Radiation Driver
Timing for main: time 0000-01-01_01:00:57 on domain   1:    3.00501 elapsed seconds
Top of Radiation Driver
Timing for main: time 0000-01-01_01:00:57 on domain   1:    2.98572 elapsed seconds
Top of Radiation Driver
Timing for main: time 0000-01-01_01:00:57 on domain   1:    2.99580 elapsed seconds
Top of Radiation Driver
Timing for main: time 0000-01-01_01:00:57 on domain   1:    2.98936 elapsed seconds
Top of Radiation Driver
Timing for main: time 0000-01-01_01:00:58 on domain   1:    2.97421 elapsed seconds
Top of Radiation Driver
Timing for main: time 0000-01-01_01:00:58 on domain   1:    2.98401 elapsed seconds
Top of Radiation Driver
Timing for main: time 0000-01-01_01:00:58 on domain   1:    2.98231 elapsed seconds
Top of Radiation Driver
Timing for main: time 0000-01-01_01:00:58 on domain   1:    2.99078 elapsed seconds
Top of Radiation Driver
Timing for main: time 0000-01-01_01:00:59 on domain   1:    2.96660 elapsed seconds
Top of Radiation Driver
Timing for main: time 0000-01-01_01:00:59 on domain   1:    2.99186 elapsed seconds
Top of Radiation Driver
Timing for main: time 0000-01-01_01:00:59 on domain   1:    2.98701 elapsed seconds
Top of Radiation Driver
Timing for main: time 0000-01-01_01:00:59 on domain   1:    2.97499 elapsed seconds
Top of Radiation Driver
Timing for main: time 0000-01-01_01:01:00 on domain   1:    2.98638 elapsed seconds
open_hist_w : opening wrfout_d01_0000-01-01_01:01:00 for writing.
 Information: NOFILL being set for writing to wrfout_d01_0000-01-01_01:01:00
 med_hist_out: opened wrfout_d01_0000-01-01_01:01:00 as DATASET=HISTORY
Timing for Writing wrfout_d01_0000-01-01_01:01:00 for domain        1:    0.36182 elapsed seconds
Top of Radiation Driver
Timing for main: time 0000-01-01_01:01:00 on domain   1:    3.42237 elapsed seconds
Top of Radiation Driver
Timing for main: time 0000-01-01_01:01:00 on domain   1:    2.99946 elapsed seconds
Top of Radiation Driver
Timing for main: time 0000-01-01_01:01:00 on domain   1:    2.99843 elapsed seconds
Top of Radiation Driver
Timing for main: time 0000-01-01_01:01:01 on domain   1:    2.99417 elapsed seconds
Top of Radiation Driver
Timing for main: time 0000-01-01_01:01:01 on domain   1:    2.97970 elapsed seconds
Top of Radiation Driver
Timing for main: time 0000-01-01_01:01:01 on domain   1:    3.01887 elapsed seconds
Top of Radiation Driver
Timing for main: time 0000-01-01_01:01:01 on domain   1:    3.02156 elapsed seconds
Top of Radiation Driver
Timing for main: time 0000-01-01_01:01:02 on domain   1:    3.02944 elapsed seconds
Top of Radiation Driver
Timing for main: time 0000-01-01_01:01:02 on domain   1:    3.01815 elapsed seconds
Top of Radiation Driver
Timing for main: time 0000-01-01_01:01:02 on domain   1:    3.03911 elapsed seconds
Top of Radiation Driver
Timing for main: time 0000-01-01_01:01:02 on domain   1:    2.99078 elapsed seconds
Top of Radiation Driver
Timing for main: time 0000-01-01_01:01:03 on domain   1:    3.01332 elapsed seconds
Top of Radiation Driver
Timing for main: time 0000-01-01_01:01:03 on domain   1:    2.99899 elapsed seconds
Top of Radiation Driver
Timing for main: time 0000-01-01_01:01:03 on domain   1:    3.02634 elapsed seconds
Top of Radiation Driver
Timing for main: time 0000-01-01_01:01:03 on domain   1:    3.02419 elapsed seconds
Top of Radiation Driver
Timing for main: time 0000-01-01_01:01:04 on domain   1:    2.99576 elapsed seconds
Top of Radiation Driver
Timing for main: time 0000-01-01_01:01:04 on domain   1:    3.02350 elapsed seconds
Top of Radiation Driver
Timing for main: time 0000-01-01_01:01:04 on domain   1:    3.05636 elapsed seconds
Top of Radiation Driver
Timing for main: time 0000-01-01_01:01:04 on domain   1:    3.00462 elapsed seconds
Top of Radiation Driver
Timing for main: time 0000-01-01_01:01:05 on domain   1:    3.03970 elapsed seconds
Top of Radiation Driver
Timing for main: time 0000-01-01_01:01:05 on domain   1:    3.01348 elapsed seconds
Top of Radiation Driver
Timing for main: time 0000-01-01_01:01:05 on domain   1:    3.01073 elapsed seconds
Top of Radiation Driver
Timing for main: time 0000-01-01_01:01:05 on domain   1:    3.03785 elapsed seconds
Top of Radiation Driver
Timing for main: time 0000-01-01_01:01:06 on domain   1:    3.02916 elapsed seconds
Top of Radiation Driver
Timing for main: time 0000-01-01_01:01:06 on domain   1:    3.01602 elapsed seconds
Top of Radiation Driver
Timing for main: time 0000-01-01_01:01:06 on domain   1:    3.02563 elapsed seconds
Top of Radiation Driver
Timing for main: time 0000-01-01_01:01:06 on domain   1:    3.01683 elapsed seconds
Top of Radiation Driver
Timing for main: time 0000-01-01_01:01:07 on domain   1:    3.00537 elapsed seconds
Top of Radiation Driver
Timing for main: time 0000-01-01_01:01:07 on domain   1:    3.00591 elapsed seconds
Top of Radiation Driver
Timing for main: time 0000-01-01_01:01:07 on domain   1:    3.04271 elapsed seconds
Top of Radiation Driver
Timing for main: time 0000-01-01_01:01:07 on domain   1:    3.02922 elapsed seconds
Top of Radiation Driver
Timing for main: time 0000-01-01_01:01:08 on domain   1:    3.00366 elapsed seconds
Top of Radiation Driver
Timing for main: time 0000-01-01_01:01:08 on domain   1:    3.02618 elapsed seconds
Top of Radiation Driver
Timing for main: time 0000-01-01_01:01:08 on domain   1:    3.01140 elapsed seconds
Top of Radiation Driver
Timing for main: time 0000-01-01_01:01:08 on domain   1:    3.01054 elapsed seconds
Top of Radiation Driver
Timing for main: time 0000-01-01_01:01:09 on domain   1:    3.06166 elapsed seconds
Top of Radiation Driver
Timing for main: time 0000-01-01_01:01:09 on domain   1:    2.99445 elapsed seconds
Top of Radiation Driver
Timing for main: time 0000-01-01_01:01:09 on domain   1:    3.00469 elapsed seconds
Top of Radiation Driver
Timing for main: time 0000-01-01_01:01:09 on domain   1:    3.03892 elapsed seconds
Top of Radiation Driver
Timing for main: time 0000-01-01_01:01:10 on domain   1:    3.00040 elapsed seconds
Top of Radiation Driver
Timing for main: time 0000-01-01_01:01:10 on domain   1:    3.01283 elapsed seconds
Top of Radiation Driver
Timing for main: time 0000-01-01_01:01:10 on domain   1:    3.00842 elapsed seconds
Top of Radiation Driver
Timing for main: time 0000-01-01_01:01:10 on domain   1:    3.02755 elapsed seconds
Top of Radiation Driver
Timing for main: time 0000-01-01_01:01:11 on domain   1:    3.00085 elapsed seconds
Top of Radiation Driver
Timing for main: time 0000-01-01_01:01:11 on domain   1:    3.00450 elapsed seconds
Top of Radiation Driver
Timing for main: time 0000-01-01_01:01:11 on domain   1:    3.01189 elapsed seconds
Top of Radiation Driver
Timing for main: time 0000-01-01_01:01:11 on domain   1:    3.06957 elapsed seconds
Top of Radiation Driver
Timing for main: time 0000-01-01_01:01:12 on domain   1:    3.00105 elapsed seconds
Top of Radiation Driver
Timing for main: time 0000-01-01_01:01:12 on domain   1:    3.03625 elapsed seconds
Top of Radiation Driver
Timing for main: time 0000-01-01_01:01:12 on domain   1:    3.00223 elapsed seconds
Top of Radiation Driver
Timing for main: time 0000-01-01_01:01:12 on domain   1:    2.98936 elapsed seconds
Top of Radiation Driver
Timing for main: time 0000-01-01_01:01:13 on domain   1:    3.00353 elapsed seconds
Top of Radiation Driver
Timing for main: time 0000-01-01_01:01:13 on domain   1:    3.01260 elapsed seconds
Top of Radiation Driver
Timing for main: time 0000-01-01_01:01:13 on domain   1:    3.03398 elapsed seconds
Top of Radiation Driver
Timing for main: time 0000-01-01_01:01:13 on domain   1:    3.00017 elapsed seconds
Top of Radiation Driver
Timing for main: time 0000-01-01_01:01:14 on domain   1:    3.00751 elapsed seconds
Top of Radiation Driver
Timing for main: time 0000-01-01_01:01:14 on domain   1:    3.03751 elapsed seconds
Top of Radiation Driver
Timing for main: time 0000-01-01_01:01:14 on domain   1:    3.01057 elapsed seconds
Top of Radiation Driver
Timing for main: time 0000-01-01_01:01:14 on domain   1:    3.00635 elapsed seconds
Top of Radiation Driver
Timing for main: time 0000-01-01_01:01:15 on domain   1:    3.02275 elapsed seconds
Top of Radiation Driver
Timing for main: time 0000-01-01_01:01:15 on domain   1:    3.03745 elapsed seconds
Top of Radiation Driver
Timing for main: time 0000-01-01_01:01:15 on domain   1:    2.99455 elapsed seconds
Top of Radiation Driver
Timing for main: time 0000-01-01_01:01:15 on domain   1:    3.00212 elapsed seconds
Top of Radiation Driver
Timing for main: time 0000-01-01_01:01:16 on domain   1:    3.00952 elapsed seconds
Top of Radiation Driver
Timing for main: time 0000-01-01_01:01:16 on domain   1:    3.01882 elapsed seconds
Top of Radiation Driver
Timing for main: time 0000-01-01_01:01:16 on domain   1:    2.99271 elapsed seconds
Top of Radiation Driver
Timing for main: time 0000-01-01_01:01:16 on domain   1:    3.01069 elapsed seconds
Top of Radiation Driver
Timing for main: time 0000-01-01_01:01:17 on domain   1:    3.01342 elapsed seconds
Top of Radiation Driver
Timing for main: time 0000-01-01_01:01:17 on domain   1:    3.00841 elapsed seconds
Top of Radiation Driver
Timing for main: time 0000-01-01_01:01:17 on domain   1:    3.02085 elapsed seconds
Top of Radiation Driver
Timing for main: time 0000-01-01_01:01:17 on domain   1:    3.00915 elapsed seconds
Top of Radiation Driver
Timing for main: time 0000-01-01_01:01:18 on domain   1:    2.98327 elapsed seconds
Top of Radiation Driver
Timing for main: time 0000-01-01_01:01:18 on domain   1:    3.01854 elapsed seconds
Top of Radiation Driver
Timing for main: time 0000-01-01_01:01:18 on domain   1:    3.02284 elapsed seconds
Top of Radiation Driver
Timing for main: time 0000-01-01_01:01:18 on domain   1:    2.99601 elapsed seconds
Top of Radiation Driver
Timing for main: time 0000-01-01_01:01:19 on domain   1:    2.99633 elapsed seconds
Top of Radiation Driver
Timing for main: time 0000-01-01_01:01:19 on domain   1:    3.00164 elapsed seconds
Top of Radiation Driver
Timing for main: time 0000-01-01_01:01:19 on domain   1:    3.01987 elapsed seconds
Top of Radiation Driver
Timing for main: time 0000-01-01_01:01:19 on domain   1:    3.00305 elapsed seconds
Top of Radiation Driver
Timing for main: time 0000-01-01_01:01:20 on domain   1:    3.00142 elapsed seconds
Top of Radiation Driver
Timing for main: time 0000-01-01_01:01:20 on domain   1:    3.01651 elapsed seconds
Top of Radiation Driver
Timing for main: time 0000-01-01_01:01:20 on domain   1:    3.03136 elapsed seconds
Top of Radiation Driver
Timing for main: time 0000-01-01_01:01:20 on domain   1:    2.98270 elapsed seconds
Top of Radiation Driver
Timing for main: time 0000-01-01_01:01:21 on domain   1:    2.99378 elapsed seconds
Top of Radiation Driver
Timing for main: time 0000-01-01_01:01:21 on domain   1:    3.02353 elapsed seconds
Top of Radiation Driver
Timing for main: time 0000-01-01_01:01:21 on domain   1:    3.03134 elapsed seconds
Top of Radiation Driver
Timing for main: time 0000-01-01_01:01:21 on domain   1:    3.00654 elapsed seconds
Top of Radiation Driver
Timing for main: time 0000-01-01_01:01:22 on domain   1:    3.05474 elapsed seconds
Top of Radiation Driver
Timing for main: time 0000-01-01_01:01:22 on domain   1:    3.03173 elapsed seconds
Top of Radiation Driver
Timing for main: time 0000-01-01_01:01:22 on domain   1:    2.98934 elapsed seconds
Top of Radiation Driver
Timing for main: time 0000-01-01_01:01:22 on domain   1:    3.04240 elapsed seconds
Top of Radiation Driver
Timing for main: time 0000-01-01_01:01:23 on domain   1:    3.05265 elapsed seconds
Top of Radiation Driver
Timing for main: time 0000-01-01_01:01:23 on domain   1:    3.00565 elapsed seconds
Top of Radiation Driver
Timing for main: time 0000-01-01_01:01:23 on domain   1:    3.01189 elapsed seconds
Top of Radiation Driver
Timing for main: time 0000-01-01_01:01:23 on domain   1:    3.03621 elapsed seconds
Top of Radiation Driver
Timing for main: time 0000-01-01_01:01:24 on domain   1:    3.00781 elapsed seconds
Top of Radiation Driver
Timing for main: time 0000-01-01_01:01:24 on domain   1:    3.01629 elapsed seconds
Top of Radiation Driver
Timing for main: time 0000-01-01_01:01:24 on domain   1:    3.02449 elapsed seconds
Top of Radiation Driver
Timing for main: time 0000-01-01_01:01:24 on domain   1:    3.03674 elapsed seconds
Top of Radiation Driver
Timing for main: time 0000-01-01_01:01:25 on domain   1:    2.99938 elapsed seconds
Top of Radiation Driver
Timing for main: time 0000-01-01_01:01:25 on domain   1:    3.02073 elapsed seconds
Top of Radiation Driver
Timing for main: time 0000-01-01_01:01:25 on domain   1:    3.02856 elapsed seconds
Top of Radiation Driver
Timing for main: time 0000-01-01_01:01:25 on domain   1:    3.04410 elapsed seconds
Top of Radiation Driver
Timing for main: time 0000-01-01_01:01:26 on domain   1:    3.00555 elapsed seconds
Top of Radiation Driver
Timing for main: time 0000-01-01_01:01:26 on domain   1:    3.04084 elapsed seconds
Top of Radiation Driver
Timing for main: time 0000-01-01_01:01:26 on domain   1:    3.02223 elapsed seconds
Top of Radiation Driver
Timing for main: time 0000-01-01_01:01:26 on domain   1:    3.06386 elapsed seconds
Top of Radiation Driver
Timing for main: time 0000-01-01_01:01:27 on domain   1:    3.01121 elapsed seconds
Top of Radiation Driver
Timing for main: time 0000-01-01_01:01:27 on domain   1:    3.02431 elapsed seconds
Top of Radiation Driver
Timing for main: time 0000-01-01_01:01:27 on domain   1:    3.04061 elapsed seconds
Top of Radiation Driver
Timing for main: time 0000-01-01_01:01:27 on domain   1:    3.00799 elapsed seconds
Top of Radiation Driver
Timing for main: time 0000-01-01_01:01:28 on domain   1:    3.01419 elapsed seconds
Top of Radiation Driver
Timing for main: time 0000-01-01_01:01:28 on domain   1:    3.00114 elapsed seconds
Top of Radiation Driver
Timing for main: time 0000-01-01_01:01:28 on domain   1:    3.00767 elapsed seconds
Top of Radiation Driver
Timing for main: time 0000-01-01_01:01:28 on domain   1:    3.00966 elapsed seconds
Top of Radiation Driver
Timing for main: time 0000-01-01_01:01:29 on domain   1:    3.01047 elapsed seconds
Top of Radiation Driver
Timing for main: time 0000-01-01_01:01:29 on domain   1:    3.01891 elapsed seconds
Top of Radiation Driver
Timing for main: time 0000-01-01_01:01:29 on domain   1:    3.02755 elapsed seconds
Top of Radiation Driver
Timing for main: time 0000-01-01_01:01:29 on domain   1:    3.00283 elapsed seconds
Top of Radiation Driver
Timing for main: time 0000-01-01_01:01:30 on domain   1:    2.99683 elapsed seconds
Top of Radiation Driver
Timing for main: time 0000-01-01_01:01:30 on domain   1:    3.02695 elapsed seconds
Top of Radiation Driver
Timing for main: time 0000-01-01_01:01:30 on domain   1:    3.04279 elapsed seconds
Top of Radiation Driver
Timing for main: time 0000-01-01_01:01:30 on domain   1:    3.02237 elapsed seconds
Top of Radiation Driver
Timing for main: time 0000-01-01_01:01:31 on domain   1:    3.01416 elapsed seconds
Top of Radiation Driver
Timing for main: time 0000-01-01_01:01:31 on domain   1:    3.01257 elapsed seconds
Top of Radiation Driver
Timing for main: time 0000-01-01_01:01:31 on domain   1:    3.02935 elapsed seconds
Top of Radiation Driver
Timing for main: time 0000-01-01_01:01:31 on domain   1:    2.99748 elapsed seconds
Top of Radiation Driver
Timing for main: time 0000-01-01_01:01:32 on domain   1:    3.01523 elapsed seconds
Top of Radiation Driver
Timing for main: time 0000-01-01_01:01:32 on domain   1:    3.02009 elapsed seconds
Top of Radiation Driver
Timing for main: time 0000-01-01_01:01:32 on domain   1:    3.03742 elapsed seconds
Top of Radiation Driver
Timing for main: time 0000-01-01_01:01:32 on domain   1:    3.01605 elapsed seconds
Top of Radiation Driver
Timing for main: time 0000-01-01_01:01:33 on domain   1:    3.03007 elapsed seconds
Top of Radiation Driver
Timing for main: time 0000-01-01_01:01:33 on domain   1:    3.02921 elapsed seconds
Top of Radiation Driver
Timing for main: time 0000-01-01_01:01:33 on domain   1:    2.99344 elapsed seconds
Top of Radiation Driver
Timing for main: time 0000-01-01_01:01:33 on domain   1:    3.01284 elapsed seconds
Top of Radiation Driver
Timing for main: time 0000-01-01_01:01:34 on domain   1:    3.04012 elapsed seconds
Top of Radiation Driver
Timing for main: time 0000-01-01_01:01:34 on domain   1:    3.02184 elapsed seconds
Top of Radiation Driver
Timing for main: time 0000-01-01_01:01:34 on domain   1:    3.03417 elapsed seconds
Top of Radiation Driver
Timing for main: time 0000-01-01_01:01:34 on domain   1:    3.03224 elapsed seconds
Top of Radiation Driver
Timing for main: time 0000-01-01_01:01:35 on domain   1:    2.99911 elapsed seconds
Top of Radiation Driver
Timing for main: time 0000-01-01_01:01:35 on domain   1:    3.01282 elapsed seconds
Top of Radiation Driver
Timing for main: time 0000-01-01_01:01:35 on domain   1:    3.01695 elapsed seconds
Top of Radiation Driver
Timing for main: time 0000-01-01_01:01:35 on domain   1:    3.00643 elapsed seconds
Top of Radiation Driver
Timing for main: time 0000-01-01_01:01:36 on domain   1:    3.00270 elapsed seconds
Top of Radiation Driver
Timing for main: time 0000-01-01_01:01:36 on domain   1:    3.00604 elapsed seconds
Top of Radiation Driver
Timing for main: time 0000-01-01_01:01:36 on domain   1:    3.02554 elapsed seconds
Top of Radiation Driver
Timing for main: time 0000-01-01_01:01:36 on domain   1:    3.04884 elapsed seconds
Top of Radiation Driver
Timing for main: time 0000-01-01_01:01:37 on domain   1:    2.99503 elapsed seconds
Top of Radiation Driver
Timing for main: time 0000-01-01_01:01:37 on domain   1:    2.99124 elapsed seconds
Top of Radiation Driver
Timing for main: time 0000-01-01_01:01:37 on domain   1:    3.04862 elapsed seconds
Top of Radiation Driver
Timing for main: time 0000-01-01_01:01:37 on domain   1:    3.02048 elapsed seconds
Top of Radiation Driver
Timing for main: time 0000-01-01_01:01:38 on domain   1:    3.00885 elapsed seconds
Top of Radiation Driver
Timing for main: time 0000-01-01_01:01:38 on domain   1:    3.01059 elapsed seconds
Top of Radiation Driver
Timing for main: time 0000-01-01_01:01:38 on domain   1:    3.02990 elapsed seconds
Top of Radiation Driver
Timing for main: time 0000-01-01_01:01:38 on domain   1:    3.01941 elapsed seconds
Top of Radiation Driver
Timing for main: time 0000-01-01_01:01:39 on domain   1:    3.02246 elapsed seconds
Top of Radiation Driver
Timing for main: time 0000-01-01_01:01:39 on domain   1:    3.00414 elapsed seconds
Top of Radiation Driver
Timing for main: time 0000-01-01_01:01:39 on domain   1:    2.99410 elapsed seconds
Top of Radiation Driver
Timing for main: time 0000-01-01_01:01:39 on domain   1:    3.01513 elapsed seconds
Top of Radiation Driver
Timing for main: time 0000-01-01_01:01:40 on domain   1:    3.01972 elapsed seconds
Top of Radiation Driver
Timing for main: time 0000-01-01_01:01:40 on domain   1:    3.02944 elapsed seconds
Top of Radiation Driver
Timing for main: time 0000-01-01_01:01:40 on domain   1:    3.00612 elapsed seconds
Top of Radiation Driver
Timing for main: time 0000-01-01_01:01:40 on domain   1:    2.99514 elapsed seconds
Top of Radiation Driver
Timing for main: time 0000-01-01_01:01:41 on domain   1:    3.00142 elapsed seconds
Top of Radiation Driver
Timing for main: time 0000-01-01_01:01:41 on domain   1:    3.02196 elapsed seconds
Top of Radiation Driver
Timing for main: time 0000-01-01_01:01:41 on domain   1:    2.99816 elapsed seconds
Top of Radiation Driver
Timing for main: time 0000-01-01_01:01:41 on domain   1:    3.00006 elapsed seconds
Top of Radiation Driver
Timing for main: time 0000-01-01_01:01:42 on domain   1:    3.04839 elapsed seconds
Top of Radiation Driver
Timing for main: time 0000-01-01_01:01:42 on domain   1:    3.02326 elapsed seconds
Top of Radiation Driver
Timing for main: time 0000-01-01_01:01:42 on domain   1:    3.02478 elapsed seconds
Top of Radiation Driver
Timing for main: time 0000-01-01_01:01:42 on domain   1:    3.00918 elapsed seconds
Top of Radiation Driver
Timing for main: time 0000-01-01_01:01:43 on domain   1:    2.99721 elapsed seconds
Top of Radiation Driver
Timing for main: time 0000-01-01_01:01:43 on domain   1:    3.00014 elapsed seconds
Top of Radiation Driver
Timing for main: time 0000-01-01_01:01:43 on domain   1:    3.01140 elapsed seconds
Top of Radiation Driver
Timing for main: time 0000-01-01_01:01:43 on domain   1:    2.99636 elapsed seconds
Top of Radiation Driver
Timing for main: time 0000-01-01_01:01:44 on domain   1:    3.00515 elapsed seconds
Top of Radiation Driver
Timing for main: time 0000-01-01_01:01:44 on domain   1:    3.02100 elapsed seconds
Top of Radiation Driver
Timing for main: time 0000-01-01_01:01:44 on domain   1:    3.00119 elapsed seconds
Top of Radiation Driver
Timing for main: time 0000-01-01_01:01:44 on domain   1:    3.02695 elapsed seconds
Top of Radiation Driver
Timing for main: time 0000-01-01_01:01:45 on domain   1:    3.00252 elapsed seconds
Top of Radiation Driver
Timing for main: time 0000-01-01_01:01:45 on domain   1:    3.06184 elapsed seconds
Top of Radiation Driver
Timing for main: time 0000-01-01_01:01:45 on domain   1:    3.03099 elapsed seconds
Top of Radiation Driver
Timing for main: time 0000-01-01_01:01:45 on domain   1:    2.98828 elapsed seconds
Top of Radiation Driver
Timing for main: time 0000-01-01_01:01:46 on domain   1:    3.05054 elapsed seconds
Top of Radiation Driver
Timing for main: time 0000-01-01_01:01:46 on domain   1:    3.01721 elapsed seconds
Top of Radiation Driver
Timing for main: time 0000-01-01_01:01:46 on domain   1:    3.01667 elapsed seconds
Top of Radiation Driver
Timing for main: time 0000-01-01_01:01:46 on domain   1:    3.02546 elapsed seconds
Top of Radiation Driver
Timing for main: time 0000-01-01_01:01:47 on domain   1:    3.00666 elapsed seconds
Top of Radiation Driver
Timing for main: time 0000-01-01_01:01:47 on domain   1:    3.00595 elapsed seconds
Top of Radiation Driver
Timing for main: time 0000-01-01_01:01:47 on domain   1:    3.04459 elapsed seconds
Top of Radiation Driver
Timing for main: time 0000-01-01_01:01:47 on domain   1:    3.01535 elapsed seconds
Top of Radiation Driver
Timing for main: time 0000-01-01_01:01:48 on domain   1:    3.03590 elapsed seconds
Top of Radiation Driver
Timing for main: time 0000-01-01_01:01:48 on domain   1:    3.03925 elapsed seconds
Top of Radiation Driver
Timing for main: time 0000-01-01_01:01:48 on domain   1:    3.00654 elapsed seconds
Top of Radiation Driver
Timing for main: time 0000-01-01_01:01:48 on domain   1:    3.04048 elapsed seconds
Top of Radiation Driver
Timing for main: time 0000-01-01_01:01:49 on domain   1:    3.01313 elapsed seconds
Top of Radiation Driver
Timing for main: time 0000-01-01_01:01:49 on domain   1:    3.01635 elapsed seconds
Top of Radiation Driver
Timing for main: time 0000-01-01_01:01:49 on domain   1:    3.00688 elapsed seconds
Top of Radiation Driver
Timing for main: time 0000-01-01_01:01:49 on domain   1:    3.02013 elapsed seconds
Top of Radiation Driver
Timing for main: time 0000-01-01_01:01:50 on domain   1:    3.01559 elapsed seconds
Top of Radiation Driver
Timing for main: time 0000-01-01_01:01:50 on domain   1:    3.00774 elapsed seconds
Top of Radiation Driver
Timing for main: time 0000-01-01_01:01:50 on domain   1:    3.03861 elapsed seconds
Top of Radiation Driver
Timing for main: time 0000-01-01_01:01:50 on domain   1:    3.01014 elapsed seconds
Top of Radiation Driver
Timing for main: time 0000-01-01_01:01:51 on domain   1:    3.04109 elapsed seconds
Top of Radiation Driver
Timing for main: time 0000-01-01_01:01:51 on domain   1:    3.04562 elapsed seconds
Top of Radiation Driver
Timing for main: time 0000-01-01_01:01:51 on domain   1:    3.02049 elapsed seconds
Top of Radiation Driver
Timing for main: time 0000-01-01_01:01:51 on domain   1:    3.02986 elapsed seconds
Top of Radiation Driver
Timing for main: time 0000-01-01_01:01:52 on domain   1:    2.99869 elapsed seconds
Top of Radiation Driver
Timing for main: time 0000-01-01_01:01:52 on domain   1:    3.00823 elapsed seconds
Top of Radiation Driver
Timing for main: time 0000-01-01_01:01:52 on domain   1:    3.03321 elapsed seconds
Top of Radiation Driver
Timing for main: time 0000-01-01_01:01:52 on domain   1:    3.03349 elapsed seconds
Top of Radiation Driver
Timing for main: time 0000-01-01_01:01:53 on domain   1:    3.01341 elapsed seconds
Top of Radiation Driver
Timing for main: time 0000-01-01_01:01:53 on domain   1:    3.03145 elapsed seconds
Top of Radiation Driver
Timing for main: time 0000-01-01_01:01:53 on domain   1:    3.00058 elapsed seconds
Top of Radiation Driver
Timing for main: time 0000-01-01_01:01:53 on domain   1:    3.01589 elapsed seconds
Top of Radiation Driver
Timing for main: time 0000-01-01_01:01:54 on domain   1:    2.99382 elapsed seconds
Top of Radiation Driver
Timing for main: time 0000-01-01_01:01:54 on domain   1:    3.07501 elapsed seconds
Top of Radiation Driver
Timing for main: time 0000-01-01_01:01:54 on domain   1:    3.03351 elapsed seconds
Top of Radiation Driver
Timing for main: time 0000-01-01_01:01:54 on domain   1:    3.06073 elapsed seconds
Top of Radiation Driver
Timing for main: time 0000-01-01_01:01:55 on domain   1:    3.00435 elapsed seconds
Top of Radiation Driver
Timing for main: time 0000-01-01_01:01:55 on domain   1:    3.03280 elapsed seconds
Top of Radiation Driver
Timing for main: time 0000-01-01_01:01:55 on domain   1:    2.99869 elapsed seconds
Top of Radiation Driver
Timing for main: time 0000-01-01_01:01:55 on domain   1:    3.02171 elapsed seconds
Top of Radiation Driver
Timing for main: time 0000-01-01_01:01:56 on domain   1:    3.01299 elapsed seconds
Top of Radiation Driver
Timing for main: time 0000-01-01_01:01:56 on domain   1:    3.05132 elapsed seconds
Top of Radiation Driver
Timing for main: time 0000-01-01_01:01:56 on domain   1:    3.01548 elapsed seconds
Top of Radiation Driver
Timing for main: time 0000-01-01_01:01:56 on domain   1:    3.07015 elapsed seconds
Top of Radiation Driver
Timing for main: time 0000-01-01_01:01:57 on domain   1:    2.99966 elapsed seconds
Top of Radiation Driver
Timing for main: time 0000-01-01_01:01:57 on domain   1:    3.01611 elapsed seconds
Top of Radiation Driver
Timing for main: time 0000-01-01_01:01:57 on domain   1:    3.05538 elapsed seconds
Top of Radiation Driver
Timing for main: time 0000-01-01_01:01:57 on domain   1:    3.01477 elapsed seconds
Top of Radiation Driver
Timing for main: time 0000-01-01_01:01:58 on domain   1:    3.01837 elapsed seconds
Top of Radiation Driver
Timing for main: time 0000-01-01_01:01:58 on domain   1:    3.02355 elapsed seconds
Top of Radiation Driver
Timing for main: time 0000-01-01_01:01:58 on domain   1:    3.02417 elapsed seconds
Top of Radiation Driver
Timing for main: time 0000-01-01_01:01:58 on domain   1:    3.02318 elapsed seconds
Top of Radiation Driver
Timing for main: time 0000-01-01_01:01:59 on domain   1:    3.02663 elapsed seconds
Top of Radiation Driver
Timing for main: time 0000-01-01_01:01:59 on domain   1:    3.00504 elapsed seconds
Top of Radiation Driver
Timing for main: time 0000-01-01_01:01:59 on domain   1:    3.01699 elapsed seconds
Top of Radiation Driver
Timing for main: time 0000-01-01_01:01:59 on domain   1:    3.03186 elapsed seconds
Top of Radiation Driver
Timing for main: time 0000-01-01_01:02:00 on domain   1:    3.01982 elapsed seconds
 med_hist_out: opened wrfout_d01_0000-01-01_01:02:00 as DATASET=HISTORY
Timing for Writing wrfout_d01_0000-01-01_01:02:00 for domain        1:    0.20734 elapsed seconds
Top of Radiation Driver
Timing for main: time 0000-01-01_01:02:00 on domain   1:    3.24479 elapsed seconds
Top of Radiation Driver
Timing for main: time 0000-01-01_01:02:00 on domain   1:    2.99640 elapsed seconds
Top of Radiation Driver
Timing for main: time 0000-01-01_01:02:00 on domain   1:    3.00645 elapsed seconds
Top of Radiation Driver
Timing for main: time 0000-01-01_01:02:01 on domain   1:    3.03589 elapsed seconds
Top of Radiation Driver
Timing for main: time 0000-01-01_01:02:01 on domain   1:    3.00540 elapsed seconds
Top of Radiation Driver
Timing for main: time 0000-01-01_01:02:01 on domain   1:    3.01898 elapsed seconds
Top of Radiation Driver
Timing for main: time 0000-01-01_01:02:01 on domain   1:    3.02818 elapsed seconds
Top of Radiation Driver
Timing for main: time 0000-01-01_01:02:02 on domain   1:    2.99181 elapsed seconds
Top of Radiation Driver
Timing for main: time 0000-01-01_01:02:02 on domain   1:    3.00693 elapsed seconds
Top of Radiation Driver
Timing for main: time 0000-01-01_01:02:02 on domain   1:    3.01735 elapsed seconds
Top of Radiation Driver
Timing for main: time 0000-01-01_01:02:02 on domain   1:    3.02251 elapsed seconds
Top of Radiation Driver
Timing for main: time 0000-01-01_01:02:03 on domain   1:    2.99927 elapsed seconds
Top of Radiation Driver
Timing for main: time 0000-01-01_01:02:03 on domain   1:    3.01838 elapsed seconds
Top of Radiation Driver
Timing for main: time 0000-01-01_01:02:03 on domain   1:    3.03027 elapsed seconds
Top of Radiation Driver
Timing for main: time 0000-01-01_01:02:03 on domain   1:    3.02631 elapsed seconds
Top of Radiation Driver
Timing for main: time 0000-01-01_01:02:04 on domain   1:    3.00557 elapsed seconds
Top of Radiation Driver
Timing for main: time 0000-01-01_01:02:04 on domain   1:    3.00844 elapsed seconds
Top of Radiation Driver
Timing for main: time 0000-01-01_01:02:04 on domain   1:    3.01646 elapsed seconds
Top of Radiation Driver
Timing for main: time 0000-01-01_01:02:04 on domain   1:    3.04640 elapsed seconds
Top of Radiation Driver
Timing for main: time 0000-01-01_01:02:05 on domain   1:    3.03027 elapsed seconds
Top of Radiation Driver
Timing for main: time 0000-01-01_01:02:05 on domain   1:    3.01762 elapsed seconds
Top of Radiation Driver
Timing for main: time 0000-01-01_01:02:05 on domain   1:    3.00576 elapsed seconds
Top of Radiation Driver
Timing for main: time 0000-01-01_01:02:05 on domain   1:    2.99650 elapsed seconds
Top of Radiation Driver
Timing for main: time 0000-01-01_01:02:06 on domain   1:    3.01062 elapsed seconds
Top of Radiation Driver
Timing for main: time 0000-01-01_01:02:06 on domain   1:    3.04606 elapsed seconds
Top of Radiation Driver
Timing for main: time 0000-01-01_01:02:06 on domain   1:    2.99136 elapsed seconds
Top of Radiation Driver
Timing for main: time 0000-01-01_01:02:06 on domain   1:    3.01134 elapsed seconds
Top of Radiation Driver
Timing for main: time 0000-01-01_01:02:07 on domain   1:    3.04167 elapsed seconds
Top of Radiation Driver
Timing for main: time 0000-01-01_01:02:07 on domain   1:    2.99752 elapsed seconds
Top of Radiation Driver
Timing for main: time 0000-01-01_01:02:07 on domain   1:    3.01627 elapsed seconds
Top of Radiation Driver
Timing for main: time 0000-01-01_01:02:07 on domain   1:    3.00145 elapsed seconds
Top of Radiation Driver
Timing for main: time 0000-01-01_01:02:08 on domain   1:    3.01060 elapsed seconds
Top of Radiation Driver
Timing for main: time 0000-01-01_01:02:08 on domain   1:    2.99497 elapsed seconds
Top of Radiation Driver
Timing for main: time 0000-01-01_01:02:08 on domain   1:    2.99800 elapsed seconds
Top of Radiation Driver
Timing for main: time 0000-01-01_01:02:08 on domain   1:    3.00303 elapsed seconds
Top of Radiation Driver
Timing for main: time 0000-01-01_01:02:09 on domain   1:    3.00063 elapsed seconds
Top of Radiation Driver
Timing for main: time 0000-01-01_01:02:09 on domain   1:    3.02582 elapsed seconds
Top of Radiation Driver
Timing for main: time 0000-01-01_01:02:09 on domain   1:    3.02237 elapsed seconds
Top of Radiation Driver
Timing for main: time 0000-01-01_01:02:09 on domain   1:    3.03058 elapsed seconds
Top of Radiation Driver
Timing for main: time 0000-01-01_01:02:10 on domain   1:    3.05252 elapsed seconds
Top of Radiation Driver
Timing for main: time 0000-01-01_01:02:10 on domain   1:    3.00582 elapsed seconds
Top of Radiation Driver
Timing for main: time 0000-01-01_01:02:10 on domain   1:    3.02280 elapsed seconds
Top of Radiation Driver
Timing for main: time 0000-01-01_01:02:10 on domain   1:    3.00663 elapsed seconds
Top of Radiation Driver
Timing for main: time 0000-01-01_01:02:11 on domain   1:    3.01054 elapsed seconds
Top of Radiation Driver
Timing for main: time 0000-01-01_01:02:11 on domain   1:    3.00308 elapsed seconds
Top of Radiation Driver
Timing for main: time 0000-01-01_01:02:11 on domain   1:    2.99500 elapsed seconds
Top of Radiation Driver
Timing for main: time 0000-01-01_01:02:11 on domain   1:    2.99873 elapsed seconds
Top of Radiation Driver
Timing for main: time 0000-01-01_01:02:12 on domain   1:    3.02091 elapsed seconds
Top of Radiation Driver
Timing for main: time 0000-01-01_01:02:12 on domain   1:    3.01010 elapsed seconds
Top of Radiation Driver
Timing for main: time 0000-01-01_01:02:12 on domain   1:    3.00137 elapsed seconds
Top of Radiation Driver
Timing for main: time 0000-01-01_01:02:12 on domain   1:    3.01294 elapsed seconds
Top of Radiation Driver
Timing for main: time 0000-01-01_01:02:13 on domain   1:    3.03152 elapsed seconds
Top of Radiation Driver
Timing for main: time 0000-01-01_01:02:13 on domain   1:    3.02944 elapsed seconds
Top of Radiation Driver
Timing for main: time 0000-01-01_01:02:13 on domain   1:    3.00923 elapsed seconds
Top of Radiation Driver
Timing for main: time 0000-01-01_01:02:13 on domain   1:    3.00082 elapsed seconds
Top of Radiation Driver
Timing for main: time 0000-01-01_01:02:14 on domain   1:    2.99551 elapsed seconds
Top of Radiation Driver
Timing for main: time 0000-01-01_01:02:14 on domain   1:    3.00366 elapsed seconds
Top of Radiation Driver
Timing for main: time 0000-01-01_01:02:14 on domain   1:    3.01528 elapsed seconds
Top of Radiation Driver
Timing for main: time 0000-01-01_01:02:14 on domain   1:    3.03304 elapsed seconds
Top of Radiation Driver
Timing for main: time 0000-01-01_01:02:15 on domain   1:    2.98477 elapsed seconds
Top of Radiation Driver
Timing for main: time 0000-01-01_01:02:15 on domain   1:    3.01348 elapsed seconds
Top of Radiation Driver
Timing for main: time 0000-01-01_01:02:15 on domain   1:    3.00760 elapsed seconds
Top of Radiation Driver
Timing for main: time 0000-01-01_01:02:15 on domain   1:    3.04278 elapsed seconds
Top of Radiation Driver
Timing for main: time 0000-01-01_01:02:16 on domain   1:    2.98996 elapsed seconds
Top of Radiation Driver
Timing for main: time 0000-01-01_01:02:16 on domain   1:    3.01679 elapsed seconds
Top of Radiation Driver
Timing for main: time 0000-01-01_01:02:16 on domain   1:    2.98963 elapsed seconds
Top of Radiation Driver
Timing for main: time 0000-01-01_01:02:16 on domain   1:    3.00425 elapsed seconds
Top of Radiation Driver
Timing for main: time 0000-01-01_01:02:17 on domain   1:    3.08602 elapsed seconds
Top of Radiation Driver
Timing for main: time 0000-01-01_01:02:17 on domain   1:    3.00259 elapsed seconds
Top of Radiation Driver
Timing for main: time 0000-01-01_01:02:17 on domain   1:    3.00563 elapsed seconds
Top of Radiation Driver
Timing for main: time 0000-01-01_01:02:17 on domain   1:    3.01437 elapsed seconds
Top of Radiation Driver
Timing for main: time 0000-01-01_01:02:18 on domain   1:    3.02946 elapsed seconds
Top of Radiation Driver
Timing for main: time 0000-01-01_01:02:18 on domain   1:    3.00448 elapsed seconds
Top of Radiation Driver
Timing for main: time 0000-01-01_01:02:18 on domain   1:    3.01410 elapsed seconds
Top of Radiation Driver
Timing for main: time 0000-01-01_01:02:18 on domain   1:    3.01143 elapsed seconds
Top of Radiation Driver
Timing for main: time 0000-01-01_01:02:19 on domain   1:    3.03091 elapsed seconds
Top of Radiation Driver
Timing for main: time 0000-01-01_01:02:19 on domain   1:    3.01238 elapsed seconds
Top of Radiation Driver
Timing for main: time 0000-01-01_01:02:19 on domain   1:    3.00580 elapsed seconds
Top of Radiation Driver
Timing for main: time 0000-01-01_01:02:19 on domain   1:    3.00082 elapsed seconds
Top of Radiation Driver
Timing for main: time 0000-01-01_01:02:20 on domain   1:    3.02395 elapsed seconds
Top of Radiation Driver
Timing for main: time 0000-01-01_01:02:20 on domain   1:    3.00209 elapsed seconds
Top of Radiation Driver
Timing for main: time 0000-01-01_01:02:20 on domain   1:    3.00636 elapsed seconds
Top of Radiation Driver
Timing for main: time 0000-01-01_01:02:20 on domain   1:    3.04203 elapsed seconds
Top of Radiation Driver
Timing for main: time 0000-01-01_01:02:21 on domain   1:    3.01232 elapsed seconds
Top of Radiation Driver
Timing for main: time 0000-01-01_01:02:21 on domain   1:    3.02369 elapsed seconds
Top of Radiation Driver
Timing for main: time 0000-01-01_01:02:21 on domain   1:    2.98512 elapsed seconds
Top of Radiation Driver
Timing for main: time 0000-01-01_01:02:21 on domain   1:    3.01895 elapsed seconds
Top of Radiation Driver
Timing for main: time 0000-01-01_01:02:22 on domain   1:    3.02516 elapsed seconds
Top of Radiation Driver
Timing for main: time 0000-01-01_01:02:22 on domain   1:    3.02180 elapsed seconds
Top of Radiation Driver
Timing for main: time 0000-01-01_01:02:22 on domain   1:    2.98972 elapsed seconds
Top of Radiation Driver
Timing for main: time 0000-01-01_01:02:22 on domain   1:    3.01923 elapsed seconds
Top of Radiation Driver
Timing for main: time 0000-01-01_01:02:23 on domain   1:    3.00442 elapsed seconds
Top of Radiation Driver
Timing for main: time 0000-01-01_01:02:23 on domain   1:    3.06194 elapsed seconds
Top of Radiation Driver
Timing for main: time 0000-01-01_01:02:23 on domain   1:    3.02906 elapsed seconds
Top of Radiation Driver
Timing for main: time 0000-01-01_01:02:23 on domain   1:    3.05547 elapsed seconds
Top of Radiation Driver
Timing for main: time 0000-01-01_01:02:24 on domain   1:    2.99744 elapsed seconds
Top of Radiation Driver
Timing for main: time 0000-01-01_01:02:24 on domain   1:    3.03040 elapsed seconds
Top of Radiation Driver
Timing for main: time 0000-01-01_01:02:24 on domain   1:    3.02068 elapsed seconds
Top of Radiation Driver
Timing for main: time 0000-01-01_01:02:24 on domain   1:    3.00078 elapsed seconds
Top of Radiation Driver
Timing for main: time 0000-01-01_01:02:25 on domain   1:    2.99791 elapsed seconds
Top of Radiation Driver
Timing for main: time 0000-01-01_01:02:25 on domain   1:    3.00393 elapsed seconds
Top of Radiation Driver
Timing for main: time 0000-01-01_01:02:25 on domain   1:    3.01104 elapsed seconds
Top of Radiation Driver
Timing for main: time 0000-01-01_01:02:25 on domain   1:    2.98680 elapsed seconds
Top of Radiation Driver
Timing for main: time 0000-01-01_01:02:26 on domain   1:    3.02903 elapsed seconds
Top of Radiation Driver
Timing for main: time 0000-01-01_01:02:26 on domain   1:    3.01676 elapsed seconds
Top of Radiation Driver
Timing for main: time 0000-01-01_01:02:26 on domain   1:    2.98900 elapsed seconds
Top of Radiation Driver
Timing for main: time 0000-01-01_01:02:26 on domain   1:    3.02439 elapsed seconds
Top of Radiation Driver
Timing for main: time 0000-01-01_01:02:27 on domain   1:    3.00776 elapsed seconds
Top of Radiation Driver
Timing for main: time 0000-01-01_01:02:27 on domain   1:    3.00785 elapsed seconds
Top of Radiation Driver
Timing for main: time 0000-01-01_01:02:27 on domain   1:    3.01489 elapsed seconds
Top of Radiation Driver
Timing for main: time 0000-01-01_01:02:27 on domain   1:    2.99033 elapsed seconds
Top of Radiation Driver
Timing for main: time 0000-01-01_01:02:28 on domain   1:    2.99772 elapsed seconds
Top of Radiation Driver
Timing for main: time 0000-01-01_01:02:28 on domain   1:    2.99937 elapsed seconds
Top of Radiation Driver
Timing for main: time 0000-01-01_01:02:28 on domain   1:    2.98992 elapsed seconds
Top of Radiation Driver
Timing for main: time 0000-01-01_01:02:28 on domain   1:    3.03472 elapsed seconds
Top of Radiation Driver
Timing for main: time 0000-01-01_01:02:29 on domain   1:    3.02385 elapsed seconds
Top of Radiation Driver
Timing for main: time 0000-01-01_01:02:29 on domain   1:    2.99930 elapsed seconds
Top of Radiation Driver
Timing for main: time 0000-01-01_01:02:29 on domain   1:    3.00280 elapsed seconds
Top of Radiation Driver
Timing for main: time 0000-01-01_01:02:29 on domain   1:    2.99467 elapsed seconds
Top of Radiation Driver
Timing for main: time 0000-01-01_01:02:30 on domain   1:    3.01539 elapsed seconds
Top of Radiation Driver
Timing for main: time 0000-01-01_01:02:30 on domain   1:    3.04415 elapsed seconds
Top of Radiation Driver
Timing for main: time 0000-01-01_01:02:30 on domain   1:    3.01791 elapsed seconds
Top of Radiation Driver
Timing for main: time 0000-01-01_01:02:30 on domain   1:    3.02040 elapsed seconds
Top of Radiation Driver
Timing for main: time 0000-01-01_01:02:31 on domain   1:    2.98288 elapsed seconds
Top of Radiation Driver
Timing for main: time 0000-01-01_01:02:31 on domain   1:    2.99288 elapsed seconds
Top of Radiation Driver
Timing for main: time 0000-01-01_01:02:31 on domain   1:    3.00859 elapsed seconds
Top of Radiation Driver
Timing for main: time 0000-01-01_01:02:31 on domain   1:    3.03746 elapsed seconds
Top of Radiation Driver
Timing for main: time 0000-01-01_01:02:32 on domain   1:    3.03737 elapsed seconds
Top of Radiation Driver
Timing for main: time 0000-01-01_01:02:32 on domain   1:    3.03112 elapsed seconds
Top of Radiation Driver
Timing for main: time 0000-01-01_01:02:32 on domain   1:    3.03767 elapsed seconds
Top of Radiation Driver
Timing for main: time 0000-01-01_01:02:32 on domain   1:    2.98456 elapsed seconds
Top of Radiation Driver
Timing for main: time 0000-01-01_01:02:33 on domain   1:    3.00860 elapsed seconds
Top of Radiation Driver
Timing for main: time 0000-01-01_01:02:33 on domain   1:    3.00214 elapsed seconds
Top of Radiation Driver
Timing for main: time 0000-01-01_01:02:33 on domain   1:    3.01020 elapsed seconds
Top of Radiation Driver
Timing for main: time 0000-01-01_01:02:33 on domain   1:    2.99969 elapsed seconds
Top of Radiation Driver
Timing for main: time 0000-01-01_01:02:34 on domain   1:    2.98964 elapsed seconds
Top of Radiation Driver
Timing for main: time 0000-01-01_01:02:34 on domain   1:    2.99518 elapsed seconds
Top of Radiation Driver
Timing for main: time 0000-01-01_01:02:34 on domain   1:    3.02043 elapsed seconds
Top of Radiation Driver
Timing for main: time 0000-01-01_01:02:34 on domain   1:    2.99142 elapsed seconds
Top of Radiation Driver
Timing for main: time 0000-01-01_01:02:35 on domain   1:    3.00674 elapsed seconds
Top of Radiation Driver
Timing for main: time 0000-01-01_01:02:35 on domain   1:    3.01397 elapsed seconds
Top of Radiation Driver
Timing for main: time 0000-01-01_01:02:35 on domain   1:    3.01728 elapsed seconds
Top of Radiation Driver
Timing for main: time 0000-01-01_01:02:35 on domain   1:    3.01522 elapsed seconds
Top of Radiation Driver
Timing for main: time 0000-01-01_01:02:36 on domain   1:    3.03827 elapsed seconds
Top of Radiation Driver
Timing for main: time 0000-01-01_01:02:36 on domain   1:    2.99821 elapsed seconds
Top of Radiation Driver
Timing for main: time 0000-01-01_01:02:36 on domain   1:    3.00373 elapsed seconds
Top of Radiation Driver
Timing for main: time 0000-01-01_01:02:36 on domain   1:    3.02044 elapsed seconds
Top of Radiation Driver
Timing for main: time 0000-01-01_01:02:37 on domain   1:    3.01632 elapsed seconds
Top of Radiation Driver
Timing for main: time 0000-01-01_01:02:37 on domain   1:    2.99711 elapsed seconds
Top of Radiation Driver
Timing for main: time 0000-01-01_01:02:37 on domain   1:    3.01684 elapsed seconds
Top of Radiation Driver
Timing for main: time 0000-01-01_01:02:37 on domain   1:    2.98581 elapsed seconds
Top of Radiation Driver
Timing for main: time 0000-01-01_01:02:38 on domain   1:    2.99805 elapsed seconds
Top of Radiation Driver
Timing for main: time 0000-01-01_01:02:38 on domain   1:    3.01713 elapsed seconds
Top of Radiation Driver
Timing for main: time 0000-01-01_01:02:38 on domain   1:    3.01125 elapsed seconds
Top of Radiation Driver
Timing for main: time 0000-01-01_01:02:38 on domain   1:    2.99558 elapsed seconds
Top of Radiation Driver
Timing for main: time 0000-01-01_01:02:39 on domain   1:    3.01056 elapsed seconds
Top of Radiation Driver
Timing for main: time 0000-01-01_01:02:39 on domain   1:    3.01877 elapsed seconds
Top of Radiation Driver
Timing for main: time 0000-01-01_01:02:39 on domain   1:    3.01398 elapsed seconds
Top of Radiation Driver
Timing for main: time 0000-01-01_01:02:39 on domain   1:    3.04551 elapsed seconds
Top of Radiation Driver
Timing for main: time 0000-01-01_01:02:40 on domain   1:    3.04144 elapsed seconds
Top of Radiation Driver
Timing for main: time 0000-01-01_01:02:40 on domain   1:    2.99841 elapsed seconds
Top of Radiation Driver
Timing for main: time 0000-01-01_01:02:40 on domain   1:    3.00497 elapsed seconds
Top of Radiation Driver
Timing for main: time 0000-01-01_01:02:40 on domain   1:    2.99585 elapsed seconds
Top of Radiation Driver
Timing for main: time 0000-01-01_01:02:41 on domain   1:    3.01566 elapsed seconds
Top of Radiation Driver
Timing for main: time 0000-01-01_01:02:41 on domain   1:    3.02833 elapsed seconds
Top of Radiation Driver
Timing for main: time 0000-01-01_01:02:41 on domain   1:    3.00985 elapsed seconds
Top of Radiation Driver
Timing for main: time 0000-01-01_01:02:41 on domain   1:    3.00510 elapsed seconds
Top of Radiation Driver
Timing for main: time 0000-01-01_01:02:42 on domain   1:    2.99234 elapsed seconds
Top of Radiation Driver
Timing for main: time 0000-01-01_01:02:42 on domain   1:    3.02892 elapsed seconds
Top of Radiation Driver
Timing for main: time 0000-01-01_01:02:42 on domain   1:    3.00770 elapsed seconds
Top of Radiation Driver
Timing for main: time 0000-01-01_01:02:42 on domain   1:    2.99903 elapsed seconds
Top of Radiation Driver
Timing for main: time 0000-01-01_01:02:43 on domain   1:    3.01884 elapsed seconds
Top of Radiation Driver
Timing for main: time 0000-01-01_01:02:43 on domain   1:    3.02938 elapsed seconds
Top of Radiation Driver
Timing for main: time 0000-01-01_01:02:43 on domain   1:    2.99595 elapsed seconds
Top of Radiation Driver
Timing for main: time 0000-01-01_01:02:43 on domain   1:    3.00286 elapsed seconds
Top of Radiation Driver
Timing for main: time 0000-01-01_01:02:44 on domain   1:    2.99276 elapsed seconds
Top of Radiation Driver
Timing for main: time 0000-01-01_01:02:44 on domain   1:    3.02708 elapsed seconds
Top of Radiation Driver
Timing for main: time 0000-01-01_01:02:44 on domain   1:    2.98537 elapsed seconds
Top of Radiation Driver
Timing for main: time 0000-01-01_01:02:44 on domain   1:    3.00197 elapsed seconds
Top of Radiation Driver
Timing for main: time 0000-01-01_01:02:45 on domain   1:    3.00826 elapsed seconds
Top of Radiation Driver
Timing for main: time 0000-01-01_01:02:45 on domain   1:    3.02943 elapsed seconds
Top of Radiation Driver
Timing for main: time 0000-01-01_01:02:45 on domain   1:    3.01442 elapsed seconds
Top of Radiation Driver
Timing for main: time 0000-01-01_01:02:45 on domain   1:    3.02513 elapsed seconds
Top of Radiation Driver
Timing for main: time 0000-01-01_01:02:46 on domain   1:    3.03417 elapsed seconds
Top of Radiation Driver
Timing for main: time 0000-01-01_01:02:46 on domain   1:    2.99574 elapsed seconds
Top of Radiation Driver
Timing for main: time 0000-01-01_01:02:46 on domain   1:    2.99457 elapsed seconds
Top of Radiation Driver
Timing for main: time 0000-01-01_01:02:46 on domain   1:    3.03019 elapsed seconds
Top of Radiation Driver
Timing for main: time 0000-01-01_01:02:47 on domain   1:    3.00394 elapsed seconds
Top of Radiation Driver
Timing for main: time 0000-01-01_01:02:47 on domain   1:    3.02034 elapsed seconds
Top of Radiation Driver
Timing for main: time 0000-01-01_01:02:47 on domain   1:    2.99918 elapsed seconds
Top of Radiation Driver
Timing for main: time 0000-01-01_01:02:47 on domain   1:    3.00610 elapsed seconds
Top of Radiation Driver
Timing for main: time 0000-01-01_01:02:48 on domain   1:    3.02872 elapsed seconds
Top of Radiation Driver
Timing for main: time 0000-01-01_01:02:48 on domain   1:    3.03037 elapsed seconds
Top of Radiation Driver
Timing for main: time 0000-01-01_01:02:48 on domain   1:    3.00145 elapsed seconds
Top of Radiation Driver
Timing for main: time 0000-01-01_01:02:48 on domain   1:    3.03059 elapsed seconds
Top of Radiation Driver
Timing for main: time 0000-01-01_01:02:49 on domain   1:    3.02482 elapsed seconds
Top of Radiation Driver
Timing for main: time 0000-01-01_01:02:49 on domain   1:    3.00405 elapsed seconds
Top of Radiation Driver
Timing for main: time 0000-01-01_01:02:49 on domain   1:    3.00110 elapsed seconds
Top of Radiation Driver
Timing for main: time 0000-01-01_01:02:49 on domain   1:    3.03716 elapsed seconds
Top of Radiation Driver
Timing for main: time 0000-01-01_01:02:50 on domain   1:    3.03530 elapsed seconds
Top of Radiation Driver
Timing for main: time 0000-01-01_01:02:50 on domain   1:    3.00802 elapsed seconds
Top of Radiation Driver
Timing for main: time 0000-01-01_01:02:50 on domain   1:    3.05431 elapsed seconds
Top of Radiation Driver
Timing for main: time 0000-01-01_01:02:50 on domain   1:    2.98938 elapsed seconds
Top of Radiation Driver
Timing for main: time 0000-01-01_01:02:51 on domain   1:    3.00019 elapsed seconds
Top of Radiation Driver
Timing for main: time 0000-01-01_01:02:51 on domain   1:    3.01937 elapsed seconds
Top of Radiation Driver
Timing for main: time 0000-01-01_01:02:51 on domain   1:    3.01107 elapsed seconds
Top of Radiation Driver
Timing for main: time 0000-01-01_01:02:51 on domain   1:    2.99229 elapsed seconds
Top of Radiation Driver
Timing for main: time 0000-01-01_01:02:52 on domain   1:    3.01376 elapsed seconds
Top of Radiation Driver
Timing for main: time 0000-01-01_01:02:52 on domain   1:    3.04887 elapsed seconds
Top of Radiation Driver
Timing for main: time 0000-01-01_01:02:52 on domain   1:    3.02397 elapsed seconds
Top of Radiation Driver
Timing for main: time 0000-01-01_01:02:52 on domain   1:    3.00374 elapsed seconds
Top of Radiation Driver
Timing for main: time 0000-01-01_01:02:53 on domain   1:    3.03000 elapsed seconds
Top of Radiation Driver
Timing for main: time 0000-01-01_01:02:53 on domain   1:    2.99994 elapsed seconds
Top of Radiation Driver
Timing for main: time 0000-01-01_01:02:53 on domain   1:    2.99589 elapsed seconds
Top of Radiation Driver
Timing for main: time 0000-01-01_01:02:53 on domain   1:    2.99858 elapsed seconds
Top of Radiation Driver
Timing for main: time 0000-01-01_01:02:54 on domain   1:    3.03077 elapsed seconds
Top of Radiation Driver
Timing for main: time 0000-01-01_01:02:54 on domain   1:    3.04899 elapsed seconds
Top of Radiation Driver
Timing for main: time 0000-01-01_01:02:54 on domain   1:    2.99988 elapsed seconds
Top of Radiation Driver
Timing for main: time 0000-01-01_01:02:54 on domain   1:    3.00968 elapsed seconds
Top of Radiation Driver
Timing for main: time 0000-01-01_01:02:55 on domain   1:    3.04162 elapsed seconds
Top of Radiation Driver
Timing for main: time 0000-01-01_01:02:55 on domain   1:    3.00468 elapsed seconds
Top of Radiation Driver
Timing for main: time 0000-01-01_01:02:55 on domain   1:    3.00980 elapsed seconds
Top of Radiation Driver
Timing for main: time 0000-01-01_01:02:55 on domain   1:    2.99571 elapsed seconds
Top of Radiation Driver
Timing for main: time 0000-01-01_01:02:56 on domain   1:    2.99135 elapsed seconds
Top of Radiation Driver
Timing for main: time 0000-01-01_01:02:56 on domain   1:    3.00400 elapsed seconds
Top of Radiation Driver
Timing for main: time 0000-01-01_01:02:56 on domain   1:    3.01064 elapsed seconds
Top of Radiation Driver
Timing for main: time 0000-01-01_01:02:56 on domain   1:    3.01344 elapsed seconds
Top of Radiation Driver
Timing for main: time 0000-01-01_01:02:57 on domain   1:    3.01205 elapsed seconds
Top of Radiation Driver
Timing for main: time 0000-01-01_01:02:57 on domain   1:    2.99647 elapsed seconds
Top of Radiation Driver
Timing for main: time 0000-01-01_01:02:57 on domain   1:    3.08291 elapsed seconds
Top of Radiation Driver
Timing for main: time 0000-01-01_01:02:57 on domain   1:    3.02428 elapsed seconds
Top of Radiation Driver
Timing for main: time 0000-01-01_01:02:58 on domain   1:    3.03390 elapsed seconds
Top of Radiation Driver
Timing for main: time 0000-01-01_01:02:58 on domain   1:    2.99931 elapsed seconds
Top of Radiation Driver
Timing for main: time 0000-01-01_01:02:58 on domain   1:    3.01466 elapsed seconds
Top of Radiation Driver
Timing for main: time 0000-01-01_01:02:58 on domain   1:    3.01923 elapsed seconds
Top of Radiation Driver
Timing for main: time 0000-01-01_01:02:59 on domain   1:    3.02163 elapsed seconds
[...]
Timing for main: time 0000-01-01_02:09:10 on domain   1:    3.01677 elapsed seconds
Top of Radiation Driver
Timing for main: time 0000-01-01_02:09:10 on domain   1:    2.99831 elapsed seconds
Top of Radiation Driver
Timing for main: time 0000-01-01_02:09:10 on domain   1:    3.00925 elapsed seconds
Top of Radiation Driver
Timing for main: time 0000-01-01_02:09:11 on domain   1:    3.02297 elapsed seconds
Top of Radiation Driver
Timing for main: time 0000-01-01_02:09:11 on domain   1:    3.00563 elapsed seconds
Top of Radiation Driver
Timing for main: time 0000-01-01_02:09:11 on domain   1:    3.00116 elapsed seconds
Top of Radiation Driver
Timing for main: time 0000-01-01_02:09:11 on domain   1:    2.99321 elapsed seconds
Top of Radiation Driver
Timing for main: time 0000-01-01_02:09:12 on domain   1:    2.98740 elapsed seconds
Top of Radiation Driver
Timing for main: time 0000-01-01_02:09:12 on domain   1:    2.99828 elapsed seconds
Top of Radiation Driver
Timing for main: time 0000-01-01_02:09:12 on domain   1:    2.98916 elapsed seconds
Top of Radiation Driver
Timing for main: time 0000-01-01_02:09:12 on domain   1:    2.98527 elapsed seconds
Top of Radiation Driver
Timing for main: time 0000-01-01_02:09:13 on domain   1:    2.99134 elapsed seconds
Top of Radiation Driver
Timing for main: time 0000-01-01_02:09:13 on domain   1:    3.04576 elapsed seconds
Top of Radiation Driver
Timing for main: time 0000-01-01_02:09:13 on domain   1:    2.99224 elapsed seconds
Top of Radiation Driver
Timing for main: time 0000-01-01_02:09:13 on domain   1:    2.98408 elapsed seconds
Top of Radiation Driver
Timing for main: time 0000-01-01_02:09:14 on domain   1:    2.98657 elapsed seconds
Top of Radiation Driver
Timing for main: time 0000-01-01_02:09:14 on domain   1:    2.98533 elapsed seconds
Top of Radiation Driver
Timing for main: time 0000-01-01_02:09:14 on domain   1:    3.00312 elapsed seconds
Top of Radiation Driver
Timing for main: time 0000-01-01_02:09:14 on domain   1:    2.99830 elapsed seconds
Top of Radiation Driver
Timing for main: time 0000-01-01_02:09:15 on domain   1:    2.98487 elapsed seconds
Top of Radiation Driver
Timing for main: time 0000-01-01_02:09:15 on domain   1:    2.97945 elapsed seconds
Top of Radiation Driver
Timing for main: time 0000-01-01_02:09:15 on domain   1:    2.97913 elapsed seconds
Top of Radiation Driver
Timing for main: time 0000-01-01_02:09:15 on domain   1:    3.00385 elapsed seconds
Top of Radiation Driver
Timing for main: time 0000-01-01_02:09:16 on domain   1:    2.98337 elapsed seconds
Top of Radiation Driver
Timing for main: time 0000-01-01_02:09:16 on domain   1:    2.99896 elapsed seconds
Top of Radiation Driver
Timing for main: time 0000-01-01_02:09:16 on domain   1:    3.00712 elapsed seconds
Top of Radiation Driver
Timing for main: time 0000-01-01_02:09:16 on domain   1:    3.00985 elapsed seconds
Top of Radiation Driver
Timing for main: time 0000-01-01_02:09:17 on domain   1:    3.02296 elapsed seconds
Top of Radiation Driver
Timing for main: time 0000-01-01_02:09:17 on domain   1:    2.98471 elapsed seconds
Top of Radiation Driver
Timing for main: time 0000-01-01_02:09:17 on domain   1:    2.99090 elapsed seconds
Top of Radiation Driver
Timing for main: time 0000-01-01_02:09:17 on domain   1:    3.01497 elapsed seconds
Top of Radiation Driver
Timing for main: time 0000-01-01_02:09:18 on domain   1:    2.99390 elapsed seconds
Top of Radiation Driver
Timing for main: time 0000-01-01_02:09:18 on domain   1:    3.01203 elapsed seconds
Top of Radiation Driver
Timing for main: time 0000-01-01_02:09:18 on domain   1:    3.00842 elapsed seconds
Top of Radiation Driver
Timing for main: time 0000-01-01_02:09:18 on domain   1:    2.99231 elapsed seconds
Top of Radiation Driver
Timing for main: time 0000-01-01_02:09:19 on domain   1:    3.00227 elapsed seconds
Top of Radiation Driver
Timing for main: time 0000-01-01_02:09:19 on domain   1:    3.00925 elapsed seconds
Top of Radiation Driver
Timing for main: time 0000-01-01_02:09:19 on domain   1:    2.99002 elapsed seconds
Top of Radiation Driver
Timing for main: time 0000-01-01_02:09:19 on domain   1:    3.01183 elapsed seconds
Top of Radiation Driver
Timing for main: time 0000-01-01_02:09:20 on domain   1:    2.99471 elapsed seconds
Top of Radiation Driver
Timing for main: time 0000-01-01_02:09:20 on domain   1:    2.99476 elapsed seconds
Top of Radiation Driver
Timing for main: time 0000-01-01_02:09:20 on domain   1:    3.00374 elapsed seconds
Top of Radiation Driver
Timing for main: time 0000-01-01_02:09:20 on domain   1:    3.00033 elapsed seconds
Top of Radiation Driver
Timing for main: time 0000-01-01_02:09:21 on domain   1:    2.98698 elapsed seconds
Top of Radiation Driver
Timing for main: time 0000-01-01_02:09:21 on domain   1:    2.98814 elapsed seconds
Top of Radiation Driver
Timing for main: time 0000-01-01_02:09:21 on domain   1:    3.05779 elapsed seconds
Top of Radiation Driver
Timing for main: time 0000-01-01_02:09:21 on domain   1:    3.01338 elapsed seconds
Top of Radiation Driver
Timing for main: time 0000-01-01_02:09:22 on domain   1:    3.00118 elapsed seconds
Top of Radiation Driver
Timing for main: time 0000-01-01_02:09:22 on domain   1:    2.98267 elapsed seconds
Top of Radiation Driver
Timing for main: time 0000-01-01_02:09:22 on domain   1:    3.00211 elapsed seconds
Top of Radiation Driver
Timing for main: time 0000-01-01_02:09:22 on domain   1:    3.02257 elapsed seconds
Top of Radiation Driver
Timing for main: time 0000-01-01_02:09:23 on domain   1:    2.99594 elapsed seconds
Top of Radiation Driver
Timing for main: time 0000-01-01_02:09:23 on domain   1:    2.99459 elapsed seconds
Top of Radiation Driver
Timing for main: time 0000-01-01_02:09:23 on domain   1:    2.99292 elapsed seconds
Top of Radiation Driver
Timing for main: time 0000-01-01_02:09:23 on domain   1:    3.00944 elapsed seconds
Top of Radiation Driver
Timing for main: time 0000-01-01_02:09:24 on domain   1:    3.01470 elapsed seconds
Top of Radiation Driver
Timing for main: time 0000-01-01_02:09:24 on domain   1:    3.01069 elapsed seconds
Top of Radiation Driver
Timing for main: time 0000-01-01_02:09:24 on domain   1:    2.99933 elapsed seconds
Top of Radiation Driver
Timing for main: time 0000-01-01_02:09:24 on domain   1:    2.98302 elapsed seconds
Top of Radiation Driver
Timing for main: time 0000-01-01_02:09:25 on domain   1:    3.01374 elapsed seconds
Top of Radiation Driver
Timing for main: time 0000-01-01_02:09:25 on domain   1:    2.98694 elapsed seconds
Top of Radiation Driver
Timing for main: time 0000-01-01_02:09:25 on domain   1:    2.97956 elapsed seconds
Top of Radiation Driver
Timing for main: time 0000-01-01_02:09:25 on domain   1:    3.00297 elapsed seconds
Top of Radiation Driver
Timing for main: time 0000-01-01_02:09:26 on domain   1:    3.00407 elapsed seconds
Top of Radiation Driver
Timing for main: time 0000-01-01_02:09:26 on domain   1:    2.98237 elapsed seconds
Top of Radiation Driver
Timing for main: time 0000-01-01_02:09:26 on domain   1:    2.99247 elapsed seconds
Top of Radiation Driver
Timing for main: time 0000-01-01_02:09:26 on domain   1:    3.01640 elapsed seconds
Top of Radiation Driver
Timing for main: time 0000-01-01_02:09:27 on domain   1:    2.99442 elapsed seconds
Top of Radiation Driver
Timing for main: time 0000-01-01_02:09:27 on domain   1:    2.98471 elapsed seconds
Top of Radiation Driver
Timing for main: time 0000-01-01_02:09:27 on domain   1:    3.00090 elapsed seconds
Top of Radiation Driver
Timing for main: time 0000-01-01_02:09:27 on domain   1:    2.97978 elapsed seconds
Top of Radiation Driver
Timing for main: time 0000-01-01_02:09:28 on domain   1:    2.99860 elapsed seconds
Top of Radiation Driver
Timing for main: time 0000-01-01_02:09:28 on domain   1:    3.02436 elapsed seconds
Top of Radiation Driver
Timing for main: time 0000-01-01_02:09:28 on domain   1:    2.99807 elapsed seconds
Top of Radiation Driver
Timing for main: time 0000-01-01_02:09:28 on domain   1:    3.00421 elapsed seconds
Top of Radiation Driver
Timing for main: time 0000-01-01_02:09:29 on domain   1:    2.96856 elapsed seconds
Top of Radiation Driver
Timing for main: time 0000-01-01_02:09:29 on domain   1:    2.97357 elapsed seconds
Top of Radiation Driver
Timing for main: time 0000-01-01_02:09:29 on domain   1:    2.99117 elapsed seconds
Top of Radiation Driver
Timing for main: time 0000-01-01_02:09:29 on domain   1:    2.98468 elapsed seconds
Top of Radiation Driver
Timing for main: time 0000-01-01_02:09:30 on domain   1:    2.97455 elapsed seconds
Top of Radiation Driver
Timing for main: time 0000-01-01_02:09:30 on domain   1:    3.01241 elapsed seconds
Top of Radiation Driver
Timing for main: time 0000-01-01_02:09:30 on domain   1:    3.00584 elapsed seconds
Top of Radiation Driver
Timing for main: time 0000-01-01_02:09:30 on domain   1:    3.03224 elapsed seconds
Top of Radiation Driver
Timing for main: time 0000-01-01_02:09:31 on domain   1:    2.99350 elapsed seconds
Top of Radiation Driver
Timing for main: time 0000-01-01_02:09:31 on domain   1:    2.99327 elapsed seconds
Top of Radiation Driver
Timing for main: time 0000-01-01_02:09:31 on domain   1:    2.99841 elapsed seconds
Top of Radiation Driver
Timing for main: time 0000-01-01_02:09:31 on domain   1:    3.00604 elapsed seconds
Top of Radiation Driver
Timing for main: time 0000-01-01_02:09:32 on domain   1:    2.98504 elapsed seconds
Top of Radiation Driver
Timing for main: time 0000-01-01_02:09:32 on domain   1:    2.99584 elapsed seconds
Top of Radiation Driver
Timing for main: time 0000-01-01_02:09:32 on domain   1:    3.01529 elapsed seconds
Top of Radiation Driver
Timing for main: time 0000-01-01_02:09:32 on domain   1:    3.01028 elapsed seconds
Top of Radiation Driver
Timing for main: time 0000-01-01_02:09:33 on domain   1:    3.00946 elapsed seconds
Top of Radiation Driver
Timing for main: time 0000-01-01_02:09:33 on domain   1:    3.00270 elapsed seconds
Top of Radiation Driver
Timing for main: time 0000-01-01_02:09:33 on domain   1:    3.04030 elapsed seconds
Top of Radiation Driver
Timing for main: time 0000-01-01_02:09:33 on domain   1:    3.01621 elapsed seconds
Top of Radiation Driver
Timing for main: time 0000-01-01_02:09:34 on domain   1:    3.01958 elapsed seconds
Top of Radiation Driver
Timing for main: time 0000-01-01_02:09:34 on domain   1:    3.06169 elapsed seconds
Top of Radiation Driver
Timing for main: time 0000-01-01_02:09:34 on domain   1:    3.04488 elapsed seconds
Top of Radiation Driver
Timing for main: time 0000-01-01_02:09:34 on domain   1:    3.05385 elapsed seconds
Top of Radiation Driver
Timing for main: time 0000-01-01_02:09:35 on domain   1:    3.02040 elapsed seconds
Top of Radiation Driver
Timing for main: time 0000-01-01_02:09:35 on domain   1:    3.01129 elapsed seconds
Top of Radiation Driver
Timing for main: time 0000-01-01_02:09:35 on domain   1:    3.04192 elapsed seconds
Top of Radiation Driver
Timing for main: time 0000-01-01_02:09:35 on domain   1:    3.02868 elapsed seconds
Top of Radiation Driver
Timing for main: time 0000-01-01_02:09:36 on domain   1:    3.05044 elapsed seconds
Top of Radiation Driver
Timing for main: time 0000-01-01_02:09:36 on domain   1:    3.04451 elapsed seconds
Top of Radiation Driver
Timing for main: time 0000-01-01_02:09:36 on domain   1:    3.05651 elapsed seconds
Top of Radiation Driver
Timing for main: time 0000-01-01_02:09:36 on domain   1:    3.02588 elapsed seconds
Top of Radiation Driver
Timing for main: time 0000-01-01_02:09:37 on domain   1:    3.06881 elapsed seconds
Top of Radiation Driver
Timing for main: time 0000-01-01_02:09:37 on domain   1:    3.04454 elapsed seconds
Top of Radiation Driver
Timing for main: time 0000-01-01_02:09:37 on domain   1:    3.03161 elapsed seconds
Top of Radiation Driver
Timing for main: time 0000-01-01_02:09:37 on domain   1:    3.04686 elapsed seconds
Top of Radiation Driver
Timing for main: time 0000-01-01_02:09:38 on domain   1:    3.04716 elapsed seconds
Top of Radiation Driver
Timing for main: time 0000-01-01_02:09:38 on domain   1:    3.02559 elapsed seconds
Top of Radiation Driver
Timing for main: time 0000-01-01_02:09:38 on domain   1:    3.04371 elapsed seconds
Top of Radiation Driver
Timing for main: time 0000-01-01_02:09:38 on domain   1:    3.01672 elapsed seconds
Top of Radiation Driver
Timing for main: time 0000-01-01_02:09:39 on domain   1:    3.04868 elapsed seconds
Top of Radiation Driver
Timing for main: time 0000-01-01_02:09:39 on domain   1:    3.03161 elapsed seconds
Top of Radiation Driver
Timing for main: time 0000-01-01_02:09:39 on domain   1:    3.03735 elapsed seconds
Top of Radiation Driver
Timing for main: time 0000-01-01_02:09:39 on domain   1:    3.03137 elapsed seconds
Top of Radiation Driver
Timing for main: time 0000-01-01_02:09:40 on domain   1:    3.04273 elapsed seconds
Top of Radiation Driver
Timing for main: time 0000-01-01_02:09:40 on domain   1:    3.01532 elapsed seconds
Top of Radiation Driver
Timing for main: time 0000-01-01_02:09:40 on domain   1:    3.02230 elapsed seconds
Top of Radiation Driver
Timing for main: time 0000-01-01_02:09:40 on domain   1:    3.04050 elapsed seconds
Top of Radiation Driver
Timing for main: time 0000-01-01_02:09:41 on domain   1:    3.02574 elapsed seconds
Top of Radiation Driver
Timing for main: time 0000-01-01_02:09:41 on domain   1:    3.01775 elapsed seconds
Top of Radiation Driver
Timing for main: time 0000-01-01_02:09:41 on domain   1:    3.03681 elapsed seconds
Top of Radiation Driver
Timing for main: time 0000-01-01_02:09:41 on domain   1:    3.03706 elapsed seconds
Top of Radiation Driver
Timing for main: time 0000-01-01_02:09:42 on domain   1:    3.04188 elapsed seconds
Top of Radiation Driver
Timing for main: time 0000-01-01_02:09:42 on domain   1:    3.05703 elapsed seconds
Top of Radiation Driver
Timing for main: time 0000-01-01_02:09:42 on domain   1:    3.04424 elapsed seconds
Top of Radiation Driver
Timing for main: time 0000-01-01_02:09:42 on domain   1:    3.01252 elapsed seconds
Top of Radiation Driver
Timing for main: time 0000-01-01_02:09:43 on domain   1:    3.00660 elapsed seconds
Top of Radiation Driver
Timing for main: time 0000-01-01_02:09:43 on domain   1:    3.04629 elapsed seconds
Top of Radiation Driver
Timing for main: time 0000-01-01_02:09:43 on domain   1:    3.04776 elapsed seconds
Top of Radiation Driver
Timing for main: time 0000-01-01_02:09:43 on domain   1:    3.01222 elapsed seconds
Top of Radiation Driver
Timing for main: time 0000-01-01_02:09:44 on domain   1:    3.05174 elapsed seconds
Top of Radiation Driver
Timing for main: time 0000-01-01_02:09:44 on domain   1:    3.03283 elapsed seconds
Top of Radiation Driver
Timing for main: time 0000-01-01_02:09:44 on domain   1:    3.03348 elapsed seconds
Top of Radiation Driver
Timing for main: time 0000-01-01_02:09:44 on domain   1:    3.05158 elapsed seconds
Top of Radiation Driver
Timing for main: time 0000-01-01_02:09:45 on domain   1:    3.05120 elapsed seconds
Top of Radiation Driver
Timing for main: time 0000-01-01_02:09:45 on domain   1:    3.03545 elapsed seconds
Top of Radiation Driver
Timing for main: time 0000-01-01_02:09:45 on domain   1:    3.02494 elapsed seconds
Top of Radiation Driver
Timing for main: time 0000-01-01_02:09:45 on domain   1:    3.05292 elapsed seconds
Top of Radiation Driver
Timing for main: time 0000-01-01_02:09:46 on domain   1:    3.02040 elapsed seconds
Top of Radiation Driver
Timing for main: time 0000-01-01_02:09:46 on domain   1:    3.06502 elapsed seconds
Top of Radiation Driver
Timing for main: time 0000-01-01_02:09:46 on domain   1:    3.07164 elapsed seconds
Top of Radiation Driver
Timing for main: time 0000-01-01_02:09:46 on domain   1:    3.05094 elapsed seconds
Top of Radiation Driver
Timing for main: time 0000-01-01_02:09:47 on domain   1:    3.05735 elapsed seconds
Top of Radiation Driver
Timing for main: time 0000-01-01_02:09:47 on domain   1:    3.09679 elapsed seconds
Top of Radiation Driver
Timing for main: time 0000-01-01_02:09:47 on domain   1:    3.02519 elapsed seconds
Top of Radiation Driver
Timing for main: time 0000-01-01_02:09:47 on domain   1:    3.03407 elapsed seconds
Top of Radiation Driver
Timing for main: time 0000-01-01_02:09:48 on domain   1:    3.03665 elapsed seconds
Top of Radiation Driver
Timing for main: time 0000-01-01_02:09:48 on domain   1:    3.02699 elapsed seconds
Top of Radiation Driver
Timing for main: time 0000-01-01_02:09:48 on domain   1:    3.03119 elapsed seconds
Top of Radiation Driver
Timing for main: time 0000-01-01_02:09:48 on domain   1:    3.01642 elapsed seconds
Top of Radiation Driver
Timing for main: time 0000-01-01_02:09:49 on domain   1:    3.01590 elapsed seconds
Top of Radiation Driver
Timing for main: time 0000-01-01_02:09:49 on domain   1:    3.03720 elapsed seconds
Top of Radiation Driver
Timing for main: time 0000-01-01_02:09:49 on domain   1:    3.03450 elapsed seconds
Top of Radiation Driver
Timing for main: time 0000-01-01_02:09:49 on domain   1:    3.05477 elapsed seconds
Top of Radiation Driver
Timing for main: time 0000-01-01_02:09:50 on domain   1:    3.01568 elapsed seconds
Top of Radiation Driver
Timing for main: time 0000-01-01_02:09:50 on domain   1:    3.01021 elapsed seconds
Top of Radiation Driver
Timing for main: time 0000-01-01_02:09:50 on domain   1:    3.04173 elapsed seconds
Top of Radiation Driver
Timing for main: time 0000-01-01_02:09:50 on domain   1:    3.02712 elapsed seconds
Top of Radiation Driver
Timing for main: time 0000-01-01_02:09:51 on domain   1:    3.03663 elapsed seconds
Top of Radiation Driver
Timing for main: time 0000-01-01_02:09:51 on domain   1:    3.05070 elapsed seconds
Top of Radiation Driver
Timing for main: time 0000-01-01_02:09:51 on domain   1:    3.01330 elapsed seconds
Top of Radiation Driver
Timing for main: time 0000-01-01_02:09:51 on domain   1:    3.05664 elapsed seconds
Top of Radiation Driver
Timing for main: time 0000-01-01_02:09:52 on domain   1:    3.04847 elapsed seconds
Top of Radiation Driver
Timing for main: time 0000-01-01_02:09:52 on domain   1:    3.03173 elapsed seconds
Top of Radiation Driver
Timing for main: time 0000-01-01_02:09:52 on domain   1:    3.05620 elapsed seconds
Top of Radiation Driver
Timing for main: time 0000-01-01_02:09:52 on domain   1:    3.04731 elapsed seconds
Top of Radiation Driver
Timing for main: time 0000-01-01_02:09:53 on domain   1:    3.03620 elapsed seconds
Top of Radiation Driver
Timing for main: time 0000-01-01_02:09:53 on domain   1:    3.05564 elapsed seconds
Top of Radiation Driver
Timing for main: time 0000-01-01_02:09:53 on domain   1:    3.03605 elapsed seconds
Top of Radiation Driver
Timing for main: time 0000-01-01_02:09:53 on domain   1:    3.04261 elapsed seconds
Top of Radiation Driver
Timing for main: time 0000-01-01_02:09:54 on domain   1:    3.06850 elapsed seconds
Top of Radiation Driver
Timing for main: time 0000-01-01_02:09:54 on domain   1:    3.04279 elapsed seconds
Top of Radiation Driver
Timing for main: time 0000-01-01_02:09:54 on domain   1:    3.04851 elapsed seconds
Top of Radiation Driver
Timing for main: time 0000-01-01_02:09:54 on domain   1:    3.07182 elapsed seconds
Top of Radiation Driver
Timing for main: time 0000-01-01_02:09:55 on domain   1:    3.07682 elapsed seconds
Top of Radiation Driver
Timing for main: time 0000-01-01_02:09:55 on domain   1:    3.06832 elapsed seconds
Top of Radiation Driver
Timing for main: time 0000-01-01_02:09:55 on domain   1:    3.03856 elapsed seconds
Top of Radiation Driver
Timing for main: time 0000-01-01_02:09:55 on domain   1:    3.03006 elapsed seconds
Top of Radiation Driver
Timing for main: time 0000-01-01_02:09:56 on domain   1:    3.03576 elapsed seconds
Top of Radiation Driver
Timing for main: time 0000-01-01_02:09:56 on domain   1:    3.03201 elapsed seconds
Top of Radiation Driver
